# generated using pymatgen
data_CoH22C34(NO2)4
_symmetry_space_group_name_H-M   'P 1'
_cell_length_a   8.40730000
_cell_length_b   11.49100000
_cell_length_c   35.10800000
_cell_angle_alpha   90.00000000
_cell_angle_beta   90.00000000
_cell_angle_gamma   105.84200000
_symmetry_Int_Tables_number   1
_chemical_formula_structural   CoH22C34(NO2)4
_chemical_formula_sum   'Co4 H88 C136 N16 O32'
_cell_volume   3262.89968334
_cell_formula_units_Z   4
loop_
 _symmetry_equiv_pos_site_id
 _symmetry_equiv_pos_as_xyz
  1  'x, y, z'
loop_
 _atom_site_type_symbol
 _atom_site_label
 _atom_site_symmetry_multiplicity
 _atom_site_fract_x
 _atom_site_fract_y
 _atom_site_fract_z
 _atom_site_occupancy
  Co  Co0  1  0.47425000  0.50377000  0.85218600  1.0
  Co  Co1  1  0.52575000  0.99623000  0.35218600  1.0
  Co  Co2  1  0.52575000  0.49623000  0.14781400  1.0
  Co  Co3  1  0.47425000  0.00377000  0.64781400  1.0
  H  H4  1  0.25850000  0.42910000  0.96220000  1.0
  H  H5  1  0.74150000  0.07090000  0.46220000  1.0
  H  H6  1  0.74150000  0.57090000  0.03780000  1.0
  H  H7  1  0.25850000  0.92910000  0.53780000  1.0
  H  H8  1  0.32610000  0.54170000  0.01400000  1.0
  H  H9  1  0.67390000  0.95830000  0.51400000  1.0
  H  H10  1  0.67390000  0.45830000  0.98600000  1.0
  H  H11  1  0.32610000  0.04170000  0.48600000  1.0
  H  H12  1  0.47100000  0.59200000  0.06870000  1.0
  H  H13  1  0.52900000  0.90800000  0.56870000  1.0
  H  H14  1  0.52900000  0.40800000  0.93130000  1.0
  H  H15  1  0.47100000  0.09200000  0.43130000  1.0
  H  H16  1  0.18660000  0.31730000  0.12120000  1.0
  H  H17  1  0.81340000  0.18270000  0.62120000  1.0
  H  H18  1  0.81340000  0.68270000  0.87880000  1.0
  H  H19  1  0.18660000  0.81730000  0.37880000  1.0
  H  H20  1  0.03230000  0.25990000  0.06800000  1.0
  H  H21  1  0.96770000  0.24010000  0.56800000  1.0
  H  H22  1  0.96770000  0.74010000  0.93200000  1.0
  H  H23  1  0.03230000  0.75990000  0.43200000  1.0
  H  H24  1  0.84940000  0.26370000  0.02060000  1.0
  H  H25  1  0.15060000  0.23630000  0.52060000  1.0
  H  H26  1  0.15060000  0.73630000  0.97940000  1.0
  H  H27  1  0.84940000  0.76370000  0.47940000  1.0
  H  H28  1  0.85170000  0.24560000  0.90700000  1.0
  H  H29  1  0.14830000  0.25440000  0.40700000  1.0
  H  H30  1  0.14830000  0.75440000  0.09300000  1.0
  H  H31  1  0.85170000  0.74560000  0.59300000  1.0
  H  H32  1  0.58480000  0.23310000  0.01510000  1.0
  H  H33  1  0.41520000  0.26690000  0.51510000  1.0
  H  H34  1  0.41520000  0.76690000  0.98490000  1.0
  H  H35  1  0.58480000  0.73310000  0.48490000  1.0
  H  H36  1  0.30930000  0.13660000  0.01280000  1.0
  H  H37  1  0.69070000  0.36340000  0.51280000  1.0
  H  H38  1  0.69070000  0.86340000  0.98720000  1.0
  H  H39  1  0.30930000  0.63660000  0.48720000  1.0
  H  H40  1  0.35470000  0.00490000  0.91390000  1.0
  H  H41  1  0.64530000  0.49510000  0.41390000  1.0
  H  H42  1  0.64530000  0.99510000  0.08610000  1.0
  H  H43  1  0.35470000  0.50490000  0.58610000  1.0
  H  H44  1  0.63490000  0.09530000  0.91360000  1.0
  H  H45  1  0.36510000  0.40470000  0.41360000  1.0
  H  H46  1  0.36510000  0.90470000  0.08640000  1.0
  H  H47  1  0.63490000  0.59530000  0.58640000  1.0
  H  H48  1  0.53530000  0.91620000  0.83440000  1.0
  H  H49  1  0.46470000  0.58380000  0.33440000  1.0
  H  H50  1  0.46470000  0.08380000  0.16560000  1.0
  H  H51  1  0.53530000  0.41620000  0.66560000  1.0
  H  H52  1  0.86900000  0.27070000  0.81810000  1.0
  H  H53  1  0.13100000  0.22930000  0.31810000  1.0
  H  H54  1  0.13100000  0.72930000  0.18190000  1.0
  H  H55  1  0.86900000  0.77070000  0.68190000  1.0
  H  H56  1  0.77350000  0.42970000  0.83600000  1.0
  H  H57  1  0.22650000  0.07030000  0.33600000  1.0
  H  H58  1  0.22650000  0.57030000  0.16400000  1.0
  H  H59  1  0.77350000  0.92970000  0.66400000  1.0
  H  H60  1  0.32010000  0.22930000  0.83580000  1.0
  H  H61  1  0.67990000  0.27070000  0.33580000  1.0
  H  H62  1  0.67990000  0.77070000  0.16420000  1.0
  H  H63  1  0.32010000  0.72930000  0.66420000  1.0
  H  H64  1  0.40140000  0.06350000  0.81860000  1.0
  H  H65  1  0.59860000  0.43650000  0.31860000  1.0
  H  H66  1  0.59860000  0.93650000  0.18140000  1.0
  H  H67  1  0.40140000  0.56350000  0.68140000  1.0
  H  H68  1  0.89200000  0.13250000  0.77150000  1.0
  H  H69  1  0.10800000  0.36750000  0.27150000  1.0
  H  H70  1  0.10800000  0.86750000  0.22850000  1.0
  H  H71  1  0.89200000  0.63250000  0.72850000  1.0
  H  H72  1  0.86620000  0.78180000  0.78090000  1.0
  H  H73  1  0.13380000  0.71820000  0.28090000  1.0
  H  H74  1  0.13380000  0.21820000  0.21910000  1.0
  H  H75  1  0.86620000  0.28180000  0.71910000  1.0
  H  H76  1  0.97910000  0.08750000  0.70820000  1.0
  H  H77  1  0.02090000  0.41250000  0.20820000  1.0
  H  H78  1  0.02090000  0.91250000  0.29180000  1.0
  H  H79  1  0.97910000  0.58750000  0.79180000  1.0
  H  H80  1  0.18580000  0.09590000  0.66560000  1.0
  H  H81  1  0.81420000  0.40410000  0.16560000  1.0
  H  H82  1  0.81420000  0.90410000  0.33440000  1.0
  H  H83  1  0.18580000  0.59590000  0.83440000  1.0
  H  H84  1  0.37310000  0.89200000  0.72950000  1.0
  H  H85  1  0.62690000  0.60800000  0.22950000  1.0
  H  H86  1  0.62690000  0.10800000  0.27050000  1.0
  H  H87  1  0.37310000  0.39200000  0.77050000  1.0
  H  H88  1  0.16840000  0.87270000  0.77370000  1.0
  H  H89  1  0.83160000  0.62730000  0.27370000  1.0
  H  H90  1  0.83160000  0.12730000  0.22630000  1.0
  H  H91  1  0.16840000  0.37270000  0.72630000  1.0
  C  C92  1  0.16280000  0.36200000  0.89189000  1.0
  C  C93  1  0.83720000  0.13800000  0.39189000  1.0
  C  C94  1  0.83720000  0.63800000  0.10811000  1.0
  C  C95  1  0.16280000  0.86200000  0.60811000  1.0
  C  C96  1  0.07060000  0.33940000  0.92885000  1.0
  C  C97  1  0.92940000  0.16060000  0.42885000  1.0
  C  C98  1  0.92940000  0.66060000  0.07115000  1.0
  C  C99  1  0.07060000  0.83940000  0.57115000  1.0
  C  C100  1  0.14980000  0.38100000  0.96279000  1.0
  C  C101  1  0.85020000  0.11900000  0.46279000  1.0
  C  C102  1  0.85020000  0.61900000  0.03721000  1.0
  C  C103  1  0.14980000  0.88100000  0.53721000  1.0
  C  C104  1  0.07080000  0.35240000  0.99747000  1.0
  C  C105  1  0.92920000  0.14760000  0.49747000  1.0
  C  C106  1  0.92920000  0.64760000  0.00253000  1.0
  C  C107  1  0.07080000  0.85240000  0.50253000  1.0
  C  C108  1  0.16230000  0.39140000  0.03352000  1.0
  C  C109  1  0.83770000  0.10860000  0.53352000  1.0
  C  C110  1  0.83770000  0.60860000  0.96648000  1.0
  C  C111  1  0.16230000  0.89140000  0.46648000  1.0
  C  C112  1  0.29530000  0.49310000  0.03546000  1.0
  C  C113  1  0.70470000  0.00690000  0.53546000  1.0
  C  C114  1  0.70470000  0.50690000  0.96454000  1.0
  C  C115  1  0.29530000  0.99310000  0.46454000  1.0
  C  C116  1  0.38200000  0.52290000  0.06863000  1.0
  C  C117  1  0.61800000  0.97710000  0.56863000  1.0
  C  C118  1  0.61800000  0.47710000  0.93137000  1.0
  C  C119  1  0.38200000  0.02290000  0.43137000  1.0
  C  C120  1  0.21630000  0.36320000  0.09917000  1.0
  C  C121  1  0.78370000  0.13680000  0.59917000  1.0
  C  C122  1  0.78370000  0.63680000  0.90083000  1.0
  C  C123  1  0.21630000  0.86320000  0.40083000  1.0
  C  C124  1  0.12300000  0.32760000  0.06714000  1.0
  C  C125  1  0.87700000  0.17240000  0.56714000  1.0
  C  C126  1  0.87700000  0.67240000  0.93286000  1.0
  C  C127  1  0.12300000  0.82760000  0.43286000  1.0
  C  C128  1  0.90440000  0.28390000  0.99754000  1.0
  C  C129  1  0.09560000  0.21610000  0.49754000  1.0
  C  C130  1  0.09560000  0.71610000  0.00246000  1.0
  C  C131  1  0.90440000  0.78390000  0.50246000  1.0
  C  C132  1  0.82160000  0.24620000  0.96402000  1.0
  C  C133  1  0.17840000  0.25380000  0.46402000  1.0
  C  C134  1  0.17840000  0.75380000  0.03598000  1.0
  C  C135  1  0.82160000  0.74620000  0.53598000  1.0
  C  C136  1  0.90620000  0.27280000  0.92966000  1.0
  C  C137  1  0.09380000  0.22720000  0.42966000  1.0
  C  C138  1  0.09380000  0.72720000  0.07034000  1.0
  C  C139  1  0.90620000  0.77280000  0.57034000  1.0
  C  C140  1  0.64260000  0.17950000  0.96423000  1.0
  C  C141  1  0.35740000  0.32050000  0.46423000  1.0
  C  C142  1  0.35740000  0.82050000  0.03577000  1.0
  C  C143  1  0.64260000  0.67950000  0.53577000  1.0
  C  C144  1  0.54140000  0.18760000  0.99370000  1.0
  C  C145  1  0.45860000  0.31240000  0.49370000  1.0
  C  C146  1  0.45860000  0.81240000  0.00630000  1.0
  C  C147  1  0.54140000  0.68760000  0.50630000  1.0
  C  C148  1  0.37460000  0.12890000  0.99212000  1.0
  C  C149  1  0.62540000  0.37110000  0.49212000  1.0
  C  C150  1  0.62540000  0.87110000  0.00788000  1.0
  C  C151  1  0.37460000  0.62890000  0.50788000  1.0
  C  C152  1  0.40160000  0.05210000  0.93469000  1.0
  C  C153  1  0.59840000  0.44790000  0.43469000  1.0
  C  C154  1  0.59840000  0.94790000  0.06531000  1.0
  C  C155  1  0.40160000  0.55210000  0.56531000  1.0
  C  C156  1  0.57090000  0.10710000  0.93404000  1.0
  C  C157  1  0.42910000  0.39290000  0.43404000  1.0
  C  C158  1  0.42910000  0.89290000  0.06596000  1.0
  C  C159  1  0.57090000  0.60710000  0.56596000  1.0
  C  C160  1  0.61070000  0.70850000  0.82623000  1.0
  C  C161  1  0.38930000  0.79150000  0.32623000  1.0
  C  C162  1  0.38930000  0.29150000  0.17377000  1.0
  C  C163  1  0.61070000  0.20850000  0.67377000  1.0
  C  C164  1  0.68920000  0.83020000  0.81013000  1.0
  C  C165  1  0.31080000  0.66980000  0.31013000  1.0
  C  C166  1  0.31080000  0.16980000  0.18987000  1.0
  C  C167  1  0.68920000  0.33020000  0.68987000  1.0
  C  C168  1  0.62810000  0.92740000  0.81899000  1.0
  C  C169  1  0.37190000  0.57260000  0.31899000  1.0
  C  C170  1  0.37190000  0.07260000  0.18101000  1.0
  C  C171  1  0.62810000  0.42740000  0.68101000  1.0
  C  C172  1  0.70550000  0.04140000  0.80481000  1.0
  C  C173  1  0.29450000  0.45860000  0.30481000  1.0
  C  C174  1  0.29450000  0.95860000  0.19519000  1.0
  C  C175  1  0.70550000  0.54140000  0.69519000  1.0
  C  C176  1  0.64610000  0.14720000  0.81596000  1.0
  C  C177  1  0.35390000  0.35280000  0.31596000  1.0
  C  C178  1  0.35390000  0.85280000  0.18404000  1.0
  C  C179  1  0.64610000  0.64720000  0.68404000  1.0
  C  C180  1  0.75620000  0.25970000  0.82157000  1.0
  C  C181  1  0.24380000  0.24030000  0.32157000  1.0
  C  C182  1  0.24380000  0.74030000  0.17843000  1.0
  C  C183  1  0.75620000  0.75970000  0.67843000  1.0
  C  C184  1  0.69740000  0.35490000  0.83229000  1.0
  C  C185  1  0.30260000  0.14510000  0.33229000  1.0
  C  C186  1  0.30260000  0.64510000  0.16771000  1.0
  C  C187  1  0.69740000  0.85490000  0.66771000  1.0
  C  C188  1  0.43230000  0.23770000  0.83226000  1.0
  C  C189  1  0.56770000  0.26230000  0.33226000  1.0
  C  C190  1  0.56770000  0.76230000  0.16774000  1.0
  C  C191  1  0.43230000  0.73770000  0.66774000  1.0
  C  C192  1  0.47990000  0.13750000  0.82178000  1.0
  C  C193  1  0.52010000  0.36250000  0.32178000  1.0
  C  C194  1  0.52010000  0.86250000  0.17822000  1.0
  C  C195  1  0.47990000  0.63750000  0.67822000  1.0
  C  C196  1  0.84120000  0.05620000  0.78128000  1.0
  C  C197  1  0.15880000  0.44380000  0.28128000  1.0
  C  C198  1  0.15880000  0.94380000  0.21872000  1.0
  C  C199  1  0.84120000  0.55620000  0.71872000  1.0
  C  C200  1  0.90300000  0.96030000  0.77193000  1.0
  C  C201  1  0.09700000  0.53970000  0.27193000  1.0
  C  C202  1  0.09700000  0.03970000  0.22807000  1.0
  C  C203  1  0.90300000  0.46030000  0.72807000  1.0
  C  C204  1  0.82550000  0.84720000  0.78679000  1.0
  C  C205  1  0.17450000  0.65280000  0.28679000  1.0
  C  C206  1  0.17450000  0.15280000  0.21321000  1.0
  C  C207  1  0.82550000  0.34720000  0.71321000  1.0
  C  C208  1  0.04340000  0.97430000  0.74560000  1.0
  C  C209  1  0.95660000  0.52570000  0.24560000  1.0
  C  C210  1  0.95660000  0.02570000  0.25440000  1.0
  C  C211  1  0.04340000  0.47430000  0.75440000  1.0
  C  C212  1  0.05600000  0.04440000  0.71290000  1.0
  C  C213  1  0.94400000  0.45560000  0.21290000  1.0
  C  C214  1  0.94400000  0.95560000  0.28710000  1.0
  C  C215  1  0.05600000  0.54440000  0.78710000  1.0
  C  C216  1  0.18180000  0.05010000  0.68754000  1.0
  C  C217  1  0.81820000  0.44990000  0.18754000  1.0
  C  C218  1  0.81820000  0.94990000  0.31246000  1.0
  C  C219  1  0.18180000  0.55010000  0.81246000  1.0
  C  C220  1  0.29070000  0.93020000  0.72488000  1.0
  C  C221  1  0.70930000  0.56980000  0.22488000  1.0
  C  C222  1  0.70930000  0.06980000  0.27512000  1.0
  C  C223  1  0.29070000  0.43020000  0.77512000  1.0
  C  C224  1  0.16800000  0.91800000  0.75174000  1.0
  C  C225  1  0.83200000  0.58200000  0.25174000  1.0
  C  C226  1  0.83200000  0.08200000  0.24826000  1.0
  C  C227  1  0.16800000  0.41800000  0.74826000  1.0
  N  N228  1  0.34780000  0.46010000  0.10074000  1.0
  N  N229  1  0.65220000  0.03990000  0.60074000  1.0
  N  N230  1  0.65220000  0.53990000  0.89926000  1.0
  N  N231  1  0.34780000  0.96010000  0.39926000  1.0
  N  N232  1  0.30280000  0.06310000  0.96328000  1.0
  N  N233  1  0.69720000  0.43690000  0.46328000  1.0
  N  N234  1  0.69720000  0.93690000  0.03672000  1.0
  N  N235  1  0.30280000  0.56310000  0.53672000  1.0
  N  N236  1  0.53750000  0.34680000  0.83776000  1.0
  N  N237  1  0.46250000  0.15320000  0.33776000  1.0
  N  N238  1  0.46250000  0.65320000  0.16224000  1.0
  N  N239  1  0.53750000  0.84680000  0.66224000  1.0
  N  N240  1  0.29950000  0.99280000  0.69277000  1.0
  N  N241  1  0.70050000  0.50720000  0.19277000  1.0
  N  N242  1  0.70050000  0.00720000  0.30723000  1.0
  N  N243  1  0.29950000  0.49280000  0.80723000  1.0
  O  O244  1  0.29360000  0.45090000  0.89171000  1.0
  O  O245  1  0.70640000  0.04910000  0.39171000  1.0
  O  O246  1  0.70640000  0.54910000  0.10829000  1.0
  O  O247  1  0.29360000  0.95090000  0.60829000  1.0
  O  O248  1  0.10940000  0.29450000  0.86457000  1.0
  O  O249  1  0.89060000  0.20550000  0.36457000  1.0
  O  O250  1  0.89060000  0.70550000  0.13543000  1.0
  O  O251  1  0.10940000  0.79450000  0.63543000  1.0
  O  O252  1  0.49700000  0.69621000  0.85062000  1.0
  O  O253  1  0.50300000  0.80379000  0.35062000  1.0
  O  O254  1  0.50300000  0.30379000  0.14938000  1.0
  O  O255  1  0.49700000  0.19621000  0.64938000  1.0
  O  O256  1  0.65930000  0.61924000  0.81575000  1.0
  O  O257  1  0.34070000  0.88076000  0.31575000  1.0
  O  O258  1  0.34070000  0.38076000  0.18425000  1.0
  O  O259  1  0.65930000  0.11924000  0.68425000  1.0
  O  O260  1  0.15430000  0.84850000  0.85037000  1.0
  O  O261  1  0.84570000  0.65150000  0.35037000  1.0
  O  O262  1  0.84570000  0.15150000  0.14963000  1.0
  O  O263  1  0.15430000  0.34850000  0.64963000  1.0
  O  O264  1  0.96870000  0.98670000  0.95416000  1.0
  O  O265  1  0.03130000  0.51330000  0.45416000  1.0
  O  O266  1  0.03130000  0.01330000  0.04584000  1.0
  O  O267  1  0.96870000  0.48670000  0.54584000  1.0
  O  O268  1  0.29490000  0.70240000  0.91392000  1.0
  O  O269  1  0.70510000  0.79760000  0.41392000  1.0
  O  O270  1  0.70510000  0.29760000  0.08608000  1.0
  O  O271  1  0.29490000  0.20240000  0.58608000  1.0
  O  O272  1  0.01630000  0.02900000  0.87891000  1.0
  O  O273  1  0.98370000  0.47100000  0.37891000  1.0
  O  O274  1  0.98370000  0.97100000  0.12109000  1.0
  O  O275  1  0.01630000  0.52900000  0.62109000  1.0
