# generated using pymatgen
data_In(CO2)5
_symmetry_space_group_name_H-M   'P 1'
_cell_length_a   9.74540000
_cell_length_b   18.42795747
_cell_length_c   18.42795747
_cell_angle_alpha   85.99076004
_cell_angle_beta   74.66757418
_cell_angle_gamma   74.66757417
_symmetry_Int_Tables_number   1
_chemical_formula_structural   In(CO2)5
_chemical_formula_sum   'In8 C40 O80'
_cell_volume   3078.04961579
_cell_formula_units_Z   8
loop_
 _symmetry_equiv_pos_site_id
 _symmetry_equiv_pos_as_xyz
  1  'x, y, z'
loop_
 _atom_site_type_symbol
 _atom_site_label
 _atom_site_symmetry_multiplicity
 _atom_site_fract_x
 _atom_site_fract_y
 _atom_site_fract_z
 _atom_site_occupancy
  In  In0  1  0.34065000  0.05923000  0.65291000  1.0
  In  In1  1  0.55279000  0.44077000  0.84709000  1.0
  In  In2  1  0.99356000  0.34709000  0.55923000  1.0
  In  In3  1  0.39988000  0.15291000  0.94077000  1.0
  In  In4  1  0.65935000  0.94077000  0.34709000  1.0
  In  In5  1  0.44721000  0.55923000  0.15291000  1.0
  In  In6  1  0.00644000  0.65291000  0.44077000  1.0
  In  In7  1  0.60012000  0.84709000  0.05923000  1.0
  C  C8  1  0.09836000  0.18863000  0.61785000  1.0
  C  C9  1  0.23437000  0.21982000  0.60664000  1.0
  C  C10  1  0.42763000  0.99594000  0.49360000  1.0
  C  C11  1  0.24840000  0.92406000  0.73874000  1.0
  C  C12  1  0.40654000  0.91562000  0.74450000  1.0
  C  C13  1  0.40484000  0.31137000  0.88215000  1.0
  C  C14  1  0.56083000  0.28018000  0.89336000  1.0
  C  C15  1  0.41717000  0.50406000  0.00640000  1.0
  C  C16  1  0.41120000  0.57594000  0.76126000  1.0
  C  C17  1  0.56666000  0.58438000  0.75550000  1.0
  C  C18  1  0.71621000  0.38215000  0.68863000  1.0
  C  C19  1  0.84101000  0.39336000  0.71982000  1.0
  C  C20  1  0.92123000  0.50640000  0.49594000  1.0
  C  C21  1  0.98714000  0.26126000  0.42406000  1.0
  C  C22  1  0.15104000  0.25550000  0.41562000  1.0
  C  C23  1  0.28699000  0.11785000  0.81137000  1.0
  C  C24  1  0.45419000  0.10664000  0.78018000  1.0
  C  C25  1  0.42357000  0.99360000  0.00406000  1.0
  C  C26  1  0.17246000  0.23874000  0.07594000  1.0
  C  C27  1  0.32216000  0.24450000  0.08438000  1.0
  C  C28  1  0.90164000  0.81137000  0.38215000  1.0
  C  C29  1  0.76563000  0.78018000  0.39336000  1.0
  C  C30  1  0.57237000  0.00406000  0.50640000  1.0
  C  C31  1  0.75160000  0.07594000  0.26126000  1.0
  C  C32  1  0.59346000  0.08438000  0.25550000  1.0
  C  C33  1  0.59516000  0.68863000  0.11785000  1.0
  C  C34  1  0.43917000  0.71982000  0.10664000  1.0
  C  C35  1  0.58283000  0.49594000  0.99360000  1.0
  C  C36  1  0.58880000  0.42406000  0.23874000  1.0
  C  C37  1  0.43334000  0.41562000  0.24450000  1.0
  C  C38  1  0.28379000  0.61785000  0.31137000  1.0
  C  C39  1  0.15899000  0.60664000  0.28018000  1.0
  C  C40  1  0.07877000  0.49360000  0.50406000  1.0
  C  C41  1  0.01286000  0.73874000  0.57594000  1.0
  C  C42  1  0.84896000  0.74450000  0.58438000  1.0
  C  C43  1  0.71301000  0.88215000  0.18863000  1.0
  C  C44  1  0.54581000  0.89336000  0.21982000  1.0
  C  C45  1  0.57643000  0.00640000  0.99594000  1.0
  C  C46  1  0.82754000  0.76126000  0.92406000  1.0
  C  C47  1  0.67784000  0.75550000  0.91562000  1.0
  O  O48  1  0.11037000  0.12222000  0.64104000  1.0
  O  O49  1  0.98753000  0.23160000  0.60234000  1.0
  O  O50  1  0.35210000  0.17305000  0.61115000  1.0
  O  O51  1  0.21794000  0.28815000  0.59257000  1.0
  O  O52  1  0.31546000  0.01521000  0.54647000  1.0
  O  O53  1  0.43495000  0.96927000  0.43183000  1.0
  O  O54  1  0.20346000  0.97582000  0.69506000  1.0
  O  O55  1  0.17744000  0.88115000  0.77497000  1.0
  O  O56  1  0.47608000  0.95697000  0.69927000  1.0
  O  O57  1  0.45785000  0.87215000  0.78935000  1.0
  O  O58  1  0.37363000  0.37778000  0.85896000  1.0
  O  O59  1  0.32147000  0.26840000  0.89766000  1.0
  O  O60  1  0.63630000  0.32695000  0.88885000  1.0
  O  O61  1  0.59866000  0.21185000  0.90743000  1.0
  O  O62  1  0.37714000  0.48479000  0.95353000  1.0
  O  O63  1  0.33605000  0.53073000  0.06817000  1.0
  O  O64  1  0.37434000  0.52418000  0.80494000  1.0
  O  O65  1  0.33356000  0.61885000  0.72503000  1.0
  O  O66  1  0.63232000  0.54303000  0.80073000  1.0
  O  O67  1  0.61935000  0.62785000  0.71065000  1.0
  O  O68  1  0.75141000  0.35896000  0.62222000  1.0
  O  O69  1  0.58987000  0.39766000  0.73160000  1.0
  O  O70  1  0.96325000  0.38885000  0.67305000  1.0
  O  O71  1  0.81051000  0.40743000  0.78815000  1.0
  O  O72  1  0.86193000  0.45353000  0.51521000  1.0
  O  O73  1  0.86678000  0.56817000  0.46927000  1.0
  O  O74  1  0.89852000  0.30494000  0.47582000  1.0
  O  O75  1  0.95241000  0.22503000  0.38115000  1.0
  O  O76  1  0.17535000  0.30073000  0.45697000  1.0
  O  O77  1  0.24720000  0.21065000  0.37215000  1.0
  O  O78  1  0.23259000  0.14104000  0.87778000  1.0
  O  O79  1  0.21913000  0.10234000  0.76840000  1.0
  O  O80  1  0.52515000  0.11115000  0.82695000  1.0
  O  O81  1  0.50609000  0.09257000  0.71185000  1.0
  O  O82  1  0.33067000  0.04647000  0.98479000  1.0
  O  O83  1  0.40422000  0.93183000  0.03073000  1.0
  O  O84  1  0.17928000  0.19506000  0.02418000  1.0
  O  O85  1  0.05859000  0.27497000  0.11885000  1.0
  O  O86  1  0.43305000  0.19927000  0.04303000  1.0
  O  O87  1  0.33000000  0.28935000  0.12785000  1.0
  O  O88  1  0.88963000  0.87778000  0.35896000  1.0
  O  O89  1  0.01247000  0.76840000  0.39766000  1.0
  O  O90  1  0.64790000  0.82695000  0.38885000  1.0
  O  O91  1  0.78206000  0.71185000  0.40743000  1.0
  O  O92  1  0.68454000  0.98479000  0.45353000  1.0
  O  O93  1  0.56505000  0.03073000  0.56817000  1.0
  O  O94  1  0.79654000  0.02418000  0.30494000  1.0
  O  O95  1  0.82256000  0.11885000  0.22503000  1.0
  O  O96  1  0.52392000  0.04303000  0.30073000  1.0
  O  O97  1  0.54215000  0.12785000  0.21065000  1.0
  O  O98  1  0.62637000  0.62222000  0.14104000  1.0
  O  O99  1  0.67853000  0.73160000  0.10234000  1.0
  O  O100  1  0.36370000  0.67305000  0.11115000  1.0
  O  O101  1  0.40134000  0.78815000  0.09257000  1.0
  O  O102  1  0.62286000  0.51521000  0.04647000  1.0
  O  O103  1  0.66395000  0.46927000  0.93183000  1.0
  O  O104  1  0.62566000  0.47582000  0.19506000  1.0
  O  O105  1  0.66644000  0.38115000  0.27497000  1.0
  O  O106  1  0.36768000  0.45697000  0.19927000  1.0
  O  O107  1  0.38065000  0.37215000  0.28935000  1.0
  O  O108  1  0.24859000  0.64104000  0.37778000  1.0
  O  O109  1  0.41013000  0.60234000  0.26840000  1.0
  O  O110  1  0.03675000  0.61115000  0.32695000  1.0
  O  O111  1  0.18949000  0.59257000  0.21185000  1.0
  O  O112  1  0.13807000  0.54647000  0.48479000  1.0
  O  O113  1  0.13322000  0.43183000  0.53073000  1.0
  O  O114  1  0.10148000  0.69506000  0.52418000  1.0
  O  O115  1  0.04759000  0.77497000  0.61885000  1.0
  O  O116  1  0.82465000  0.69927000  0.54303000  1.0
  O  O117  1  0.75280000  0.78935000  0.62785000  1.0
  O  O118  1  0.76741000  0.85896000  0.12222000  1.0
  O  O119  1  0.78087000  0.89766000  0.23160000  1.0
  O  O120  1  0.47485000  0.88885000  0.17305000  1.0
  O  O121  1  0.49391000  0.90743000  0.28815000  1.0
  O  O122  1  0.66933000  0.95353000  0.01521000  1.0
  O  O123  1  0.59578000  0.06817000  0.96927000  1.0
  O  O124  1  0.82072000  0.80494000  0.97582000  1.0
  O  O125  1  0.94141000  0.72503000  0.88115000  1.0
  O  O126  1  0.56695000  0.80073000  0.95697000  1.0
  O  O127  1  0.67000000  0.71065000  0.87215000  1.0
