# generated using pymatgen
data_Eu2H24C26O17
_symmetry_space_group_name_H-M   'P 1'
_cell_length_a   11.88800000
_cell_length_b   12.47500000
_cell_length_c   12.54200000
_cell_angle_alpha   90.00000000
_cell_angle_beta   98.94000000
_cell_angle_gamma   90.00000000
_symmetry_Int_Tables_number   1
_chemical_formula_structural   Eu2H24C26O17
_chemical_formula_sum   'Eu4 H48 C52 O34'
_cell_volume   1837.41755819
_cell_formula_units_Z   2
loop_
 _symmetry_equiv_pos_site_id
 _symmetry_equiv_pos_as_xyz
  1  'x, y, z'
loop_
 _atom_site_type_symbol
 _atom_site_label
 _atom_site_symmetry_multiplicity
 _atom_site_fract_x
 _atom_site_fract_y
 _atom_site_fract_z
 _atom_site_occupancy
  Eu  Eu0  1  0.37264000  0.44573000  0.13151000  1.0
  Eu  Eu1  1  0.64118000  0.22932000  0.18708000  1.0
  Eu  Eu2  1  0.62736000  0.94573000  0.86849000  1.0
  Eu  Eu3  1  0.35882000  0.72932000  0.81292000  1.0
  H  H4  1  0.32600000  0.40020000  0.48240000  1.0
  H  H5  1  0.47980000  0.33020000  0.78490000  1.0
  H  H6  1  0.64410000  0.28080000  0.53120000  1.0
  H  H7  1  0.30320000  0.30650000  0.80430000  1.0
  H  H8  1  0.11100000  0.34160000  0.75110000  1.0
  H  H9  1  0.13090000  0.46380000  0.77640000  1.0
  H  H10  1  0.14680000  0.37990000  0.87060000  1.0
  H  H11  1  0.66150000  0.36640000  0.85520000  1.0
  H  H12  1  0.85310000  0.35160000  0.84330000  1.0
  H  H13  1  0.85100000  0.22930000  0.87160000  1.0
  H  H14  1  0.83250000  0.31530000  0.95840000  1.0
  H  H15  1  0.00030000  0.53390000  0.92920000  1.0
  H  H16  1  0.71280000  0.60600000  0.04600000  1.0
  H  H17  1  0.00750000  0.56590000  0.24940000  1.0
  H  H18  1  0.63580000  0.61990000  0.19960000  1.0
  H  H19  1  0.67390000  0.65320000  0.38990000  1.0
  H  H20  1  0.70690000  0.53240000  0.40970000  1.0
  H  H21  1  0.58090000  0.56380000  0.36410000  1.0
  H  H22  1  0.63390000  0.55220000  0.87380000  1.0
  H  H23  1  0.66190000  0.51250000  0.69580000  1.0
  H  H24  1  0.70260000  0.63010000  0.68000000  1.0
  H  H25  1  0.57520000  0.60770000  0.69120000  1.0
  H  H26  1  0.77150000  0.11100000  0.31380000  1.0
  H  H27  1  0.80440000  0.16290000  0.41170000  1.0
  H  H28  1  0.67400000  0.90020000  0.51760000  1.0
  H  H29  1  0.52020000  0.83020000  0.21510000  1.0
  H  H30  1  0.35590000  0.78080000  0.46880000  1.0
  H  H31  1  0.69680000  0.80650000  0.19570000  1.0
  H  H32  1  0.88900000  0.84160000  0.24890000  1.0
  H  H33  1  0.86910000  0.96380000  0.22360000  1.0
  H  H34  1  0.85320000  0.87990000  0.12940000  1.0
  H  H35  1  0.33850000  0.86640000  0.14480000  1.0
  H  H36  1  0.14690000  0.85160000  0.15670000  1.0
  H  H37  1  0.14900000  0.72930000  0.12840000  1.0
  H  H38  1  0.16750000  0.81530000  0.04160000  1.0
  H  H39  1  0.99970000  0.03390000  0.07080000  1.0
  H  H40  1  0.28720000  0.10600000  0.95400000  1.0
  H  H41  1  0.99250000  0.06590000  0.75060000  1.0
  H  H42  1  0.36420000  0.11990000  0.80040000  1.0
  H  H43  1  0.32610000  0.15320000  0.61010000  1.0
  H  H44  1  0.29310000  0.03240000  0.59030000  1.0
  H  H45  1  0.41910000  0.06380000  0.63590000  1.0
  H  H46  1  0.36610000  0.05220000  0.12620000  1.0
  H  H47  1  0.33810000  0.01250000  0.30420000  1.0
  H  H48  1  0.29740000  0.13010000  0.32000000  1.0
  H  H49  1  0.42480000  0.10770000  0.30880000  1.0
  H  H50  1  0.22850000  0.61100000  0.68620000  1.0
  H  H51  1  0.19560000  0.66290000  0.58830000  1.0
  C  C52  1  0.48470000  0.33970000  0.48980000  1.0
  C  C53  1  0.38870000  0.37430000  0.52890000  1.0
  C  C54  1  0.38770000  0.36950000  0.64070000  1.0
  C  C55  1  0.48170000  0.33380000  0.71110000  1.0
  C  C56  1  0.57920000  0.30350000  0.66950000  1.0
  C  C57  1  0.58010000  0.30410000  0.55880000  1.0
  C  C58  1  0.48740000  0.34140000  0.37030000  1.0
  C  C59  1  0.27940000  0.38020000  0.78520000  1.0
  C  C60  1  0.35650000  0.45790000  0.85910000  1.0
  C  C61  1  0.15580000  0.39250000  0.79690000  1.0
  C  C62  1  0.69290000  0.29530000  0.84430000  1.0
  C  C63  1  0.63240000  0.21280000  0.90700000  1.0
  C  C64  1  0.81870000  0.29810000  0.88290000  1.0
  C  C65  1  0.02210000  0.54650000  0.09100000  1.0
  C  C66  1  0.96300000  0.54850000  0.98740000  1.0
  C  C67  1  0.84630000  0.57250000  0.97020000  1.0
  C  C68  1  0.79040000  0.59120000  0.05720000  1.0
  C  C69  1  0.85170000  0.58760000  0.16300000  1.0
  C  C70  1  0.96680000  0.56670000  0.17970000  1.0
  C  C71  1  0.14590000  0.52040000  0.10840000  1.0
  C  C72  1  0.68650000  0.57280000  0.24780000  1.0
  C  C73  1  0.67250000  0.45860000  0.20910000  1.0
  C  C74  1  0.65950000  0.58140000  0.36380000  1.0
  C  C75  1  0.68180000  0.59940000  0.83730000  1.0
  C  C76  1  0.66130000  0.71610000  0.86420000  1.0
  C  C77  1  0.65270000  0.58620000  0.71460000  1.0
  C  C78  1  0.51530000  0.83970000  0.51020000  1.0
  C  C79  1  0.61130000  0.87430000  0.47110000  1.0
  C  C80  1  0.61230000  0.86950000  0.35930000  1.0
  C  C81  1  0.51830000  0.83380000  0.28890000  1.0
  C  C82  1  0.42080000  0.80350000  0.33050000  1.0
  C  C83  1  0.41990000  0.80410000  0.44120000  1.0
  C  C84  1  0.51260000  0.84140000  0.62970000  1.0
  C  C85  1  0.72060000  0.88020000  0.21480000  1.0
  C  C86  1  0.64350000  0.95790000  0.14090000  1.0
  C  C87  1  0.84420000  0.89250000  0.20310000  1.0
  C  C88  1  0.30710000  0.79530000  0.15570000  1.0
  C  C89  1  0.36760000  0.71280000  0.09300000  1.0
  C  C90  1  0.18130000  0.79810000  0.11710000  1.0
  C  C91  1  0.97790000  0.04650000  0.90900000  1.0
  C  C92  1  0.03700000  0.04850000  0.01260000  1.0
  C  C93  1  0.15370000  0.07250000  0.02980000  1.0
  C  C94  1  0.20960000  0.09120000  0.94280000  1.0
  C  C95  1  0.14830000  0.08760000  0.83700000  1.0
  C  C96  1  0.03320000  0.06670000  0.82030000  1.0
  C  C97  1  0.85410000  0.02040000  0.89160000  1.0
  C  C98  1  0.31350000  0.07280000  0.75220000  1.0
  C  C99  1  0.32750000  0.95860000  0.79090000  1.0
  C  C100  1  0.34050000  0.08140000  0.63620000  1.0
  C  C101  1  0.31820000  0.09940000  0.16270000  1.0
  C  C102  1  0.33870000  0.21610000  0.13580000  1.0
  C  C103  1  0.34730000  0.08620000  0.28540000  1.0
  O  O104  1  0.56360000  0.28520000  0.33750000  1.0
  O  O105  1  0.41700000  0.39750000  0.31330000  1.0
  O  O106  1  0.28810000  0.39790000  0.67480000  1.0
  O  O107  1  0.37910000  0.54550000  0.82630000  1.0
  O  O108  1  0.39050000  0.42110000  0.95390000  1.0
  O  O109  1  0.67880000  0.27460000  0.73240000  1.0
  O  O110  1  0.62530000  0.23840000  0.00150000  1.0
  O  O111  1  0.59290000  0.12810000  0.85990000  1.0
  O  O112  1  0.19740000  0.49690000  0.20030000  1.0
  O  O113  1  0.19850000  0.52210000  0.02770000  1.0
  O  O114  1  0.79740000  0.57040000  0.86450000  1.0
  O  O115  1  0.74290000  0.78170000  0.87730000  1.0
  O  O116  1  0.56120000  0.74520000  0.87100000  1.0
  O  O117  1  0.80200000  0.60610000  0.25150000  1.0
  O  O118  1  0.75000000  0.39120000  0.23220000  1.0
  O  O119  1  0.57590000  0.43150000  0.15600000  1.0
  O  O120  1  0.76370000  0.16770000  0.34980000  1.0
  O  O121  1  0.43640000  0.78520000  0.66250000  1.0
  O  O122  1  0.58300000  0.89750000  0.68670000  1.0
  O  O123  1  0.71190000  0.89790000  0.32520000  1.0
  O  O124  1  0.62090000  0.04550000  0.17370000  1.0
  O  O125  1  0.60950000  0.92110000  0.04610000  1.0
  O  O126  1  0.32120000  0.77460000  0.26760000  1.0
  O  O127  1  0.37470000  0.73840000  0.99850000  1.0
  O  O128  1  0.40710000  0.62810000  0.14010000  1.0
  O  O129  1  0.80260000  0.99690000  0.79970000  1.0
  O  O130  1  0.80150000  0.02210000  0.97230000  1.0
  O  O131  1  0.20260000  0.07040000  0.13550000  1.0
  O  O132  1  0.25710000  0.28170000  0.12270000  1.0
  O  O133  1  0.43880000  0.24520000  0.12900000  1.0
  O  O134  1  0.19800000  0.10610000  0.74850000  1.0
  O  O135  1  0.25000000  0.89120000  0.76780000  1.0
  O  O136  1  0.42410000  0.93150000  0.84400000  1.0
  O  O137  1  0.23630000  0.66770000  0.65020000  1.0
