# generated using pymatgen
data_Li4H19C30(NO4)2
_symmetry_space_group_name_H-M   'P 1'
_cell_length_a   12.96000000
_cell_length_b   21.18930000
_cell_length_c   21.18931864
_cell_angle_alpha   84.86581798
_cell_angle_beta   72.19274308
_cell_angle_gamma   72.19280000
_symmetry_Int_Tables_number   1
_chemical_formula_structural   Li4H19C30(NO4)2
_chemical_formula_sum   'Li16 H76 C120 N8 O32'
_cell_volume   5274.61852353
_cell_formula_units_Z   4
loop_
 _symmetry_equiv_pos_site_id
 _symmetry_equiv_pos_as_xyz
  1  'x, y, z'
loop_
 _atom_site_type_symbol
 _atom_site_label
 _atom_site_symmetry_multiplicity
 _atom_site_fract_x
 _atom_site_fract_y
 _atom_site_fract_z
 _atom_site_occupancy
  Li  Li0  1  0.99805000  0.48585000  0.04885000  1.0
  Li  Li1  1  0.28441000  0.04596000  0.52242000  1.0
  Li  Li2  1  0.63873000  0.99363000  0.56331000  1.0
  Li  Li3  1  0.07440000  0.69510000  0.97870000  1.0
  Li  Li4  1  0.53275000  0.51415000  0.95115000  1.0
  Li  Li5  1  0.85279000  0.95404000  0.47758000  1.0
  Li  Li6  1  0.19567000  0.00637000  0.43669000  1.0
  Li  Li7  1  0.74820000  0.30490000  0.02130000  1.0
  Li  Li8  1  0.49805000  0.04885000  0.48585000  1.0
  Li  Li9  1  0.78441000  0.52242000  0.04596000  1.0
  Li  Li10  1  0.13873000  0.56331000  0.99363000  1.0
  Li  Li11  1  0.57440000  0.97870000  0.69510000  1.0
  Li  Li12  1  0.03275000  0.95115000  0.51415000  1.0
  Li  Li13  1  0.35279000  0.47758000  0.95404000  1.0
  Li  Li14  1  0.69567000  0.43669000  0.00637000  1.0
  Li  Li15  1  0.24820000  0.02130000  0.30490000  1.0
  H  H16  1  0.97850000  0.42800000  0.94080000  1.0
  H  H17  1  0.93190000  0.34790000  0.89490000  1.0
  H  H18  1  0.25990000  0.27760000  0.78440000  1.0
  H  H19  1  0.30380000  0.35740000  0.83020000  1.0
  H  H20  1  0.38820000  0.08440000  0.75020000  1.0
  H  H21  1  0.24650000  0.15960000  0.82880000  1.0
  H  H22  1  0.07450000  0.23000000  0.69240000  1.0
  H  H23  1  0.21280000  0.15200000  0.61620000  1.0
  H  H24  1  0.94260000  0.22660000  0.79020000  1.0
  H  H25  1  0.90030000  0.25920000  0.86240000  1.0
  H  H26  1  0.91910000  0.30460000  0.79780000  1.0
  H  H27  1  0.42860000  0.92930000  0.55850000  1.0
  H  H28  1  0.52700000  0.87300000  0.63240000  1.0
  H  H29  1  0.33920000  0.74510000  0.67170000  1.0
  H  H30  1  0.23690000  0.80380000  0.60040000  1.0
  H  H31  1  0.22590000  0.72770000  0.86770000  1.0
  H  H32  1  0.30380000  0.79120000  0.78140000  1.0
  H  H33  1  0.60840000  0.65570000  0.74710000  1.0
  H  H34  1  0.53370000  0.59510000  0.83710000  1.0
  H  H35  1  0.34730000  0.57200000  0.05920000  1.0
  H  H36  1  0.17470000  0.65210000  0.10510000  1.0
  H  H37  1  0.32190000  0.72240000  0.21560000  1.0
  H  H38  1  0.49140000  0.64260000  0.16980000  1.0
  H  H39  1  0.22280000  0.91560000  0.24980000  1.0
  H  H40  1  0.23490000  0.84040000  0.17120000  1.0
  H  H41  1  0.99690000  0.77000000  0.30760000  1.0
  H  H42  1  0.98100000  0.84800000  0.38380000  1.0
  H  H43  1  0.95940000  0.77340000  0.20980000  1.0
  H  H44  1  0.02190000  0.74080000  0.13760000  1.0
  H  H45  1  0.02150000  0.69540000  0.20220000  1.0
  H  H46  1  0.91640000  0.07070000  0.44150000  1.0
  H  H47  1  0.03240000  0.12700000  0.36760000  1.0
  H  H48  1  0.75600000  0.25490000  0.32830000  1.0
  H  H49  1  0.64110000  0.19620000  0.39960000  1.0
  H  H50  1  0.82130000  0.27230000  0.13230000  1.0
  H  H51  1  0.87640000  0.20880000  0.21860000  1.0
  H  H52  1  0.01120000  0.34430000  0.25290000  1.0
  H  H53  1  0.96590000  0.40490000  0.16290000  1.0
  H  H54  1  0.47850000  0.94080000  0.42800000  1.0
  H  H55  1  0.43190000  0.89490000  0.34790000  1.0
  H  H56  1  0.75990000  0.78440000  0.27760000  1.0
  H  H57  1  0.80380000  0.83020000  0.35740000  1.0
  H  H58  1  0.88820000  0.75020000  0.08440000  1.0
  H  H59  1  0.74650000  0.82880000  0.15960000  1.0
  H  H60  1  0.57450000  0.69240000  0.23000000  1.0
  H  H61  1  0.71280000  0.61620000  0.15200000  1.0
  H  H62  1  0.44260000  0.79020000  0.22660000  1.0
  H  H63  1  0.40030000  0.86240000  0.25920000  1.0
  H  H64  1  0.41910000  0.79780000  0.30460000  1.0
  H  H65  1  0.92860000  0.55850000  0.92930000  1.0
  H  H66  1  0.02700000  0.63240000  0.87300000  1.0
  H  H67  1  0.83920000  0.67170000  0.74510000  1.0
  H  H68  1  0.73690000  0.60040000  0.80380000  1.0
  H  H69  1  0.72590000  0.86770000  0.72770000  1.0
  H  H70  1  0.80380000  0.78140000  0.79120000  1.0
  H  H71  1  0.10840000  0.74710000  0.65570000  1.0
  H  H72  1  0.03370000  0.83710000  0.59510000  1.0
  H  H73  1  0.84730000  0.05920000  0.57200000  1.0
  H  H74  1  0.67470000  0.10510000  0.65210000  1.0
  H  H75  1  0.82190000  0.21560000  0.72240000  1.0
  H  H76  1  0.99140000  0.16980000  0.64260000  1.0
  H  H77  1  0.72280000  0.24980000  0.91560000  1.0
  H  H78  1  0.73490000  0.17120000  0.84040000  1.0
  H  H79  1  0.49690000  0.30760000  0.77000000  1.0
  H  H80  1  0.48100000  0.38380000  0.84800000  1.0
  H  H81  1  0.45940000  0.20980000  0.77340000  1.0
  H  H82  1  0.52190000  0.13760000  0.74080000  1.0
  H  H83  1  0.52150000  0.20220000  0.69540000  1.0
  H  H84  1  0.41640000  0.44150000  0.07070000  1.0
  H  H85  1  0.53240000  0.36760000  0.12700000  1.0
  H  H86  1  0.25600000  0.32830000  0.25490000  1.0
  H  H87  1  0.14110000  0.39960000  0.19620000  1.0
  H  H88  1  0.32130000  0.13230000  0.27230000  1.0
  H  H89  1  0.37640000  0.21860000  0.20880000  1.0
  H  H90  1  0.51120000  0.25290000  0.34430000  1.0
  H  H91  1  0.46590000  0.16290000  0.40490000  1.0
  C  C92  1  0.17545000  0.45327000  0.91817000  1.0
  C  C93  1  0.14559000  0.40190000  0.88888000  1.0
  C  C94  1  0.03577000  0.39749000  0.90893000  1.0
  C  C95  1  0.00834000  0.34874000  0.88280000  1.0
  C  C96  1  0.09337000  0.30102000  0.83866000  1.0
  C  C97  1  0.20258000  0.30703000  0.81725000  1.0
  C  C98  1  0.22789000  0.35555000  0.84349000  1.0
  C  C99  1  0.40568000  0.06468000  0.62320000  1.0
  C  C100  1  0.31341000  0.11058000  0.67528000  1.0
  C  C101  1  0.32437000  0.11337000  0.73889000  1.0
  C  C102  1  0.24111000  0.15881000  0.78517000  1.0
  C  C103  1  0.14982000  0.20313000  0.76763000  1.0
  C  C104  1  0.13752000  0.20067000  0.70409000  1.0
  C  C105  1  0.21999000  0.15420000  0.65922000  1.0
  C  C106  1  0.94701000  0.26089000  0.81649000  1.0
  C  C107  1  0.25318000  0.91155000  0.52951000  1.0
  C  C108  1  0.32222000  0.87287000  0.57301000  1.0
  C  C109  1  0.40923000  0.89225000  0.58217000  1.0
  C  C110  1  0.46903000  0.85816000  0.62558000  1.0
  C  C111  1  0.44420000  0.80275000  0.65885000  1.0
  C  C112  1  0.35720000  0.78292000  0.64908000  1.0
  C  C113  1  0.29625000  0.81780000  0.60650000  1.0
  C  C114  1  0.32420000  0.60947000  0.91359000  1.0
  C  C115  1  0.37208000  0.65410000  0.86084000  1.0
  C  C116  1  0.30416000  0.71263000  0.84385000  1.0
  C  C117  1  0.35100000  0.74988000  0.79132000  1.0
  C  C118  1  0.46240000  0.72931000  0.75329000  1.0
  C  C119  1  0.53050000  0.67094000  0.77126000  1.0
  C  C120  1  0.48515000  0.63459000  0.82491000  1.0
  C  C121  1  0.63230000  0.75520000  0.67840000  1.0
  C  C122  1  0.54689000  0.54673000  0.08183000  1.0
  C  C123  1  0.43637000  0.59810000  0.11112000  1.0
  C  C124  1  0.34219000  0.60251000  0.09107000  1.0
  C  C125  1  0.23988000  0.65126000  0.11720000  1.0
  C  C126  1  0.23305000  0.69898000  0.16134000  1.0
  C  C127  1  0.32686000  0.69297000  0.18275000  1.0
  C  C128  1  0.42693000  0.64445000  0.15651000  1.0
  C  C129  1  0.09356000  0.93532000  0.37680000  1.0
  C  C130  1  0.09927000  0.88942000  0.32472000  1.0
  C  C131  1  0.17663000  0.88663000  0.26111000  1.0
  C  C132  1  0.18509000  0.84119000  0.21483000  1.0
  C  C133  1  0.12058000  0.79687000  0.23237000  1.0
  C  C134  1  0.04228000  0.79933000  0.29591000  1.0
  C  C135  1  0.03341000  0.84580000  0.34078000  1.0
  C  C136  1  0.02439000  0.73911000  0.18351000  1.0
  C  C137  1  0.69424000  0.08845000  0.47049000  1.0
  C  C138  1  0.76810000  0.12713000  0.42699000  1.0
  C  C139  1  0.88365000  0.10775000  0.41783000  1.0
  C  C140  1  0.95277000  0.14184000  0.37442000  1.0
  C  C141  1  0.90580000  0.19725000  0.34115000  1.0
  C  C142  1  0.78920000  0.21708000  0.35092000  1.0
  C  C143  1  0.72055000  0.18220000  0.39350000  1.0
  C  C144  1  0.84726000  0.39053000  0.08641000  1.0
  C  C145  1  0.88702000  0.34590000  0.13916000  1.0
  C  C146  1  0.86064000  0.28737000  0.15615000  1.0
  C  C147  1  0.89220000  0.25012000  0.20868000  1.0
  C  C148  1  0.94500000  0.27069000  0.24671000  1.0
  C  C149  1  0.97270000  0.32906000  0.22874000  1.0
  C  C150  1  0.94465000  0.36541000  0.17509000  1.0
  C  C151  1  0.06590000  0.24480000  0.32160000  1.0
  C  C152  1  0.67545000  0.91817000  0.45327000  1.0
  C  C153  1  0.64559000  0.88888000  0.40190000  1.0
  C  C154  1  0.53577000  0.90893000  0.39749000  1.0
  C  C155  1  0.50834000  0.88280000  0.34874000  1.0
  C  C156  1  0.59337000  0.83866000  0.30102000  1.0
  C  C157  1  0.70258000  0.81725000  0.30703000  1.0
  C  C158  1  0.72789000  0.84349000  0.35555000  1.0
  C  C159  1  0.90568000  0.62320000  0.06468000  1.0
  C  C160  1  0.81341000  0.67528000  0.11058000  1.0
  C  C161  1  0.82437000  0.73889000  0.11337000  1.0
  C  C162  1  0.74111000  0.78517000  0.15881000  1.0
  C  C163  1  0.64982000  0.76763000  0.20313000  1.0
  C  C164  1  0.63752000  0.70409000  0.20067000  1.0
  C  C165  1  0.71999000  0.65922000  0.15420000  1.0
  C  C166  1  0.44701000  0.81649000  0.26089000  1.0
  C  C167  1  0.75318000  0.52951000  0.91155000  1.0
  C  C168  1  0.82222000  0.57301000  0.87287000  1.0
  C  C169  1  0.90923000  0.58217000  0.89225000  1.0
  C  C170  1  0.96903000  0.62558000  0.85816000  1.0
  C  C171  1  0.94420000  0.65885000  0.80275000  1.0
  C  C172  1  0.85720000  0.64908000  0.78292000  1.0
  C  C173  1  0.79625000  0.60650000  0.81780000  1.0
  C  C174  1  0.82420000  0.91359000  0.60947000  1.0
  C  C175  1  0.87208000  0.86084000  0.65410000  1.0
  C  C176  1  0.80416000  0.84385000  0.71263000  1.0
  C  C177  1  0.85100000  0.79132000  0.74988000  1.0
  C  C178  1  0.96240000  0.75329000  0.72931000  1.0
  C  C179  1  0.03050000  0.77126000  0.67094000  1.0
  C  C180  1  0.98515000  0.82491000  0.63459000  1.0
  C  C181  1  0.13230000  0.67840000  0.75520000  1.0
  C  C182  1  0.04689000  0.08183000  0.54673000  1.0
  C  C183  1  0.93637000  0.11112000  0.59810000  1.0
  C  C184  1  0.84219000  0.09107000  0.60251000  1.0
  C  C185  1  0.73988000  0.11720000  0.65126000  1.0
  C  C186  1  0.73305000  0.16134000  0.69898000  1.0
  C  C187  1  0.82686000  0.18275000  0.69297000  1.0
  C  C188  1  0.92693000  0.15651000  0.64445000  1.0
  C  C189  1  0.59356000  0.37680000  0.93532000  1.0
  C  C190  1  0.59927000  0.32472000  0.88942000  1.0
  C  C191  1  0.67663000  0.26111000  0.88663000  1.0
  C  C192  1  0.68509000  0.21483000  0.84119000  1.0
  C  C193  1  0.62058000  0.23237000  0.79687000  1.0
  C  C194  1  0.54228000  0.29591000  0.79933000  1.0
  C  C195  1  0.53341000  0.34078000  0.84580000  1.0
  C  C196  1  0.52439000  0.18351000  0.73911000  1.0
  C  C197  1  0.19424000  0.47049000  0.08845000  1.0
  C  C198  1  0.26810000  0.42699000  0.12713000  1.0
  C  C199  1  0.38365000  0.41783000  0.10775000  1.0
  C  C200  1  0.45277000  0.37442000  0.14184000  1.0
  C  C201  1  0.40580000  0.34115000  0.19725000  1.0
  C  C202  1  0.28920000  0.35092000  0.21708000  1.0
  C  C203  1  0.22055000  0.39350000  0.18220000  1.0
  C  C204  1  0.34726000  0.08641000  0.39053000  1.0
  C  C205  1  0.38702000  0.13916000  0.34590000  1.0
  C  C206  1  0.36064000  0.15615000  0.28737000  1.0
  C  C207  1  0.39220000  0.20868000  0.25012000  1.0
  C  C208  1  0.44500000  0.24671000  0.27069000  1.0
  C  C209  1  0.47270000  0.22874000  0.32906000  1.0
  C  C210  1  0.44465000  0.17509000  0.36541000  1.0
  C  C211  1  0.56590000  0.32160000  0.24480000  1.0
  N  N212  1  0.06621000  0.24953000  0.81501000  1.0
  N  N213  1  0.50760000  0.76608000  0.70052000  1.0
  N  N214  1  0.13075000  0.75047000  0.18499000  1.0
  N  N215  1  0.97420000  0.23392000  0.29948000  1.0
  N  N216  1  0.56621000  0.81501000  0.24953000  1.0
  N  N217  1  0.00760000  0.70052000  0.76608000  1.0
  N  N218  1  0.63075000  0.18499000  0.75047000  1.0
  N  N219  1  0.47420000  0.29948000  0.23392000  1.0
  O  O220  1  0.09712000  0.49261000  0.96123000  1.0
  O  O221  1  0.27668000  0.45465000  0.89931000  1.0
  O  O222  1  0.38271000  0.05813000  0.57101000  1.0
  O  O223  1  0.49939000  0.03691000  0.63385000  1.0
  O  O224  1  0.28111000  0.96089000  0.49935000  1.0
  O  O225  1  0.17241000  0.89274000  0.52514000  1.0
  O  O226  1  0.21862000  0.62321000  0.93835000  1.0
  O  O227  1  0.39397000  0.55986000  0.92906000  1.0
  O  O228  1  0.55096000  0.50739000  0.03877000  1.0
  O  O229  1  0.63064000  0.54535000  0.10069000  1.0
  O  O230  1  0.01185000  0.94187000  0.42899000  1.0
  O  O231  1  0.17015000  0.96309000  0.36615000  1.0
  O  O232  1  0.74135000  0.03911000  0.50065000  1.0
  O  O233  1  0.59029000  0.10726000  0.47486000  1.0
  O  O234  1  0.78018000  0.37679000  0.06165000  1.0
  O  O235  1  0.88289000  0.44014000  0.07094000  1.0
  O  O236  1  0.59712000  0.96123000  0.49261000  1.0
  O  O237  1  0.77668000  0.89931000  0.45465000  1.0
  O  O238  1  0.88271000  0.57101000  0.05813000  1.0
  O  O239  1  0.99939000  0.63385000  0.03691000  1.0
  O  O240  1  0.78111000  0.49935000  0.96089000  1.0
  O  O241  1  0.67241000  0.52514000  0.89274000  1.0
  O  O242  1  0.71862000  0.93835000  0.62321000  1.0
  O  O243  1  0.89397000  0.92906000  0.55986000  1.0
  O  O244  1  0.05096000  0.03877000  0.50739000  1.0
  O  O245  1  0.13064000  0.10069000  0.54535000  1.0
  O  O246  1  0.51185000  0.42899000  0.94187000  1.0
  O  O247  1  0.67015000  0.36615000  0.96309000  1.0
  O  O248  1  0.24135000  0.50065000  0.03911000  1.0
  O  O249  1  0.09029000  0.47486000  0.10726000  1.0
  O  O250  1  0.28018000  0.06165000  0.37679000  1.0
  O  O251  1  0.38289000  0.07094000  0.44014000  1.0
