# generated using pymatgen
data_Zn3P4(HO3)4
_symmetry_space_group_name_H-M   'P 1'
_cell_length_a   9.06338000
_cell_length_b   17.03230000
_cell_length_c   24.55790000
_cell_angle_alpha   107.47200000
_cell_angle_beta   89.99980000
_cell_angle_gamma   90.00000000
_symmetry_Int_Tables_number   1
_chemical_formula_structural   Zn3P4(HO3)4
_chemical_formula_sum   'Zn24 P32 H32 O96'
_cell_volume   3616.10536228
_cell_formula_units_Z   8
loop_
 _symmetry_equiv_pos_site_id
 _symmetry_equiv_pos_as_xyz
  1  'x, y, z'
loop_
 _atom_site_type_symbol
 _atom_site_label
 _atom_site_symmetry_multiplicity
 _atom_site_fract_x
 _atom_site_fract_y
 _atom_site_fract_z
 _atom_site_occupancy
  Zn  Zn0  1  0.24199000  0.89371000  0.72858000  1.0
  Zn  Zn1  1  0.27524000  0.24421000  0.83566000  1.0
  Zn  Zn2  1  0.51059000  0.77255000  0.50532000  1.0
  Zn  Zn3  1  0.01895000  0.70887000  0.50107000  1.0
  Zn  Zn4  1  0.70179000  0.70895000  0.82362000  1.0
  Zn  Zn5  1  0.25706000  0.61658000  0.27841000  1.0
  Zn  Zn6  1  0.74274000  0.10677000  0.77248000  1.0
  Zn  Zn7  1  0.77557000  0.75665000  0.66539000  1.0
  Zn  Zn8  1  0.00977000  0.22879000  0.99502000  1.0
  Zn  Zn9  1  0.51471000  0.29077000  0.99929000  1.0
  Zn  Zn10  1  0.20121000  0.29117000  0.67664000  1.0
  Zn  Zn11  1  0.75716000  0.38329000  0.22152000  1.0
  Zn  Zn12  1  0.75717000  0.10681000  0.27184000  1.0
  Zn  Zn13  1  0.72414000  0.75602000  0.16457000  1.0
  Zn  Zn14  1  0.48894000  0.22820000  0.49513000  1.0
  Zn  Zn15  1  0.98106000  0.29141000  0.49914000  1.0
  Zn  Zn16  1  0.29756000  0.29090000  0.17625000  1.0
  Zn  Zn17  1  0.74328000  0.38351000  0.72182000  1.0
  Zn  Zn18  1  0.25750000  0.89338000  0.22770000  1.0
  Zn  Zn19  1  0.22477000  0.24398000  0.33515000  1.0
  Zn  Zn20  1  0.99119000  0.77312000  0.00438000  1.0
  Zn  Zn21  1  0.48496000  0.71039000  0.00097000  1.0
  Zn  Zn22  1  0.79910000  0.70865000  0.32334000  1.0
  Zn  Zn23  1  0.24333000  0.61607000  0.77768000  1.0
  P  P24  1  0.40382000  0.07283000  0.74706000  1.0
  P  P25  1  0.51835000  0.80899000  0.75560000  1.0
  P  P26  1  0.23023000  0.83280000  0.58683000  1.0
  P  P27  1  0.22028000  0.34945000  0.96497000  1.0
  P  P28  1  0.80022000  0.81957000  0.45349000  1.0
  P  P29  1  0.28365000  0.67755000  0.41138000  1.0
  P  P30  1  0.56953000  0.55736000  0.72957000  1.0
  P  P31  1  0.44960000  0.34383000  0.76960000  1.0
  P  P32  1  0.90435000  0.92764000  0.75534000  1.0
  P  P33  1  0.01876000  0.19103000  0.74479000  1.0
  P  P34  1  0.73142000  0.16958000  0.91405000  1.0
  P  P35  1  0.72152000  0.65196000  0.53604000  1.0
  P  P36  1  0.29546000  0.17886000  0.04604000  1.0
  P  P37  1  0.78136000  0.32250000  0.08856000  1.0
  P  P38  1  0.06849000  0.44283000  0.77048000  1.0
  P  P39  1  0.94971000  0.65625000  0.73048000  1.0
  P  P40  1  0.59635000  0.92738000  0.25329000  1.0
  P  P41  1  0.48121000  0.19128000  0.24434000  1.0
  P  P42  1  0.76917000  0.16768000  0.41358000  1.0
  P  P43  1  0.77977000  0.65184000  0.03505000  1.0
  P  P44  1  0.19972000  0.18060000  0.54654000  1.0
  P  P45  1  0.71650000  0.32275000  0.58892000  1.0
  P  P46  1  0.43078000  0.44235000  0.27010000  1.0
  P  P47  1  0.55054000  0.65620000  0.23046000  1.0
  P  P48  1  0.09631000  0.07284000  0.24636000  1.0
  P  P49  1  0.98144000  0.80856000  0.25487000  1.0
  P  P50  1  0.26979000  0.83263000  0.08595000  1.0
  P  P51  1  0.27870000  0.34903000  0.46469000  1.0
  P  P52  1  0.70315000  0.82137000  0.95334000  1.0
  P  P53  1  0.21991000  0.67657000  0.91079000  1.0
  P  P54  1  0.93194000  0.55689000  0.22947000  1.0
  P  P55  1  0.05010000  0.34389000  0.26974000  1.0
  H  H56  1  0.31341000  0.08186000  0.70263000  1.0
  H  H57  1  0.56871000  0.88914000  0.76088000  1.0
  H  H58  1  0.18725000  0.88268000  0.55311000  1.0
  H  H59  1  0.18742000  0.41488000  0.94319000  1.0
  H  H60  1  0.82836000  0.88583000  0.43189000  1.0
  H  H61  1  0.39117000  0.61509000  0.39824000  1.0
  H  H62  1  0.61603000  0.60344000  0.69374000  1.0
  H  H63  1  0.41150000  0.42344000  0.76831000  1.0
  H  H64  1  0.81464000  0.91888000  0.79999000  1.0
  H  H65  1  0.06920000  0.11100000  0.73985000  1.0
  H  H66  1  0.69497000  0.11985000  0.94861000  1.0
  H  H67  1  0.68873000  0.58668000  0.55808000  1.0
  H  H68  1  0.32300000  0.11187000  0.06689000  1.0
  H  H69  1  0.88767000  0.38556000  0.10101000  1.0
  H  H70  1  0.11556000  0.39716000  0.80650000  1.0
  H  H71  1  0.91145000  0.57670000  0.73184000  1.0
  H  H72  1  0.68678000  0.91845000  0.29774000  1.0
  H  H73  1  0.43056000  0.11118000  0.23901000  1.0
  H  H74  1  0.81192000  0.11784000  0.44735000  1.0
  H  H75  1  0.81326000  0.58632000  0.05674000  1.0
  H  H76  1  0.17169000  0.11436000  0.56816000  1.0
  H  H77  1  0.60923000  0.38533000  0.60219000  1.0
  H  H78  1  0.38461000  0.39647000  0.30611000  1.0
  H  H79  1  0.58882000  0.57657000  0.23165000  1.0
  H  H80  1  0.18649000  0.08190000  0.20190000  1.0
  H  H81  1  0.93096000  0.88861000  0.25992000  1.0
  H  H82  1  0.31016000  0.88246000  0.05197000  1.0
  H  H83  1  0.31137000  0.41462000  0.44295000  1.0
  H  H84  1  0.67316000  0.88714000  0.93145000  1.0
  H  H85  1  0.11502000  0.61276000  0.89815000  1.0
  H  H86  1  0.88618000  0.60297000  0.19355000  1.0
  H  H87  1  0.08855000  0.42348000  0.26848000  1.0
  O  O88  1  0.38145000  0.98665000  0.75319000  1.0
  O  O89  1  0.35981000  0.13664000  0.80333000  1.0
  O  O90  1  0.56210000  0.08466000  0.72902000  1.0
  O  O91  1  0.34971000  0.80786000  0.74922000  1.0
  O  O92  1  0.56353000  0.78924000  0.81024000  1.0
  O  O93  1  0.58658000  0.74930000  0.70160000  1.0
  O  O94  1  0.20922000  0.88535000  0.64891000  1.0
  O  O95  1  0.13003000  0.75633000  0.57220000  1.0
  O  O96  1  0.39429000  0.81010000  0.57513000  1.0
  O  O97  1  0.08964000  0.33946000  0.00231000  1.0
  O  O98  1  0.23959000  0.26845000  0.91613000  1.0
  O  O99  1  0.36546000  0.37243000  0.99818000  1.0
  O  O100  1  0.94072000  0.80757000  0.48495000  1.0
  O  O101  1  0.66484000  0.84409000  0.49268000  1.0
  O  O102  1  0.76606000  0.74121000  0.40415000  1.0
  O  O103  1  0.35618000  0.75858000  0.44667000  1.0
  O  O104  1  0.22063000  0.68777000  0.35561000  1.0
  O  O105  1  0.16212000  0.64900000  0.44483000  1.0
  O  O106  1  0.62687000  0.46984000  0.70280000  1.0
  O  O107  1  0.40072000  0.55909000  0.73023000  1.0
  O  O108  1  0.63436000  0.59645000  0.78976000  1.0
  O  O109  1  0.38919000  0.33592000  0.82624000  1.0
  O  O110  1  0.61801000  0.33511000  0.76725000  1.0
  O  O111  1  0.38124000  0.28023000  0.71724000  1.0
  O  O112  1  0.88180000  0.01356000  0.74877000  1.0
  O  O113  1  0.86039000  0.86366000  0.69913000  1.0
  O  O114  1  0.06291000  0.91581000  0.77317000  1.0
  O  O115  1  0.85014000  0.19201000  0.75114000  1.0
  O  O116  1  0.06396000  0.21043000  0.69002000  1.0
  O  O117  1  0.08711000  0.25106000  0.79861000  1.0
  O  O118  1  0.71035000  0.11587000  0.85233000  1.0
  O  O119  1  0.62616000  0.24395000  0.92830000  1.0
  O  O120  1  0.89404000  0.19637000  0.92483000  1.0
  O  O121  1  0.58931000  0.66211000  0.49946000  1.0
  O  O122  1  0.74214000  0.73297000  0.58483000  1.0
  O  O123  1  0.86609000  0.62909000  0.50242000  1.0
  O  O124  1  0.43554000  0.19189000  0.01476000  1.0
  O  O125  1  0.16020000  0.15442000  0.00660000  1.0
  O  O126  1  0.26033000  0.25657000  0.09569000  1.0
  O  O127  1  0.85464000  0.24175000  0.05323000  1.0
  O  O128  1  0.72047000  0.31207000  0.14457000  1.0
  O  O129  1  0.65782000  0.35039000  0.05568000  1.0
  O  O130  1  0.12524000  0.53054000  0.79695000  1.0
  O  O131  1  0.89972000  0.44045000  0.76986000  1.0
  O  O132  1  0.13338000  0.40366000  0.71032000  1.0
  O  O133  1  0.88876000  0.66422000  0.67392000  1.0
  O  O134  1  0.11817000  0.66476000  0.73248000  1.0
  O  O135  1  0.88184000  0.71994000  0.78290000  1.0
  O  O136  1  0.61821000  0.01359000  0.24717000  1.0
  O  O137  1  0.64066000  0.86370000  0.19702000  1.0
  O  O138  1  0.43817000  0.91508000  0.27124000  1.0
  O  O139  1  0.64984000  0.19231000  0.25077000  1.0
  O  O140  1  0.43664000  0.21108000  0.18967000  1.0
  O  O141  1  0.41292000  0.25097000  0.29833000  1.0
  O  O142  1  0.78964000  0.11499000  0.35153000  1.0
  O  O143  1  0.86986000  0.24394000  0.42806000  1.0
  O  O144  1  0.60529000  0.19075000  0.42534000  1.0
  O  O145  1  0.91118000  0.66282000  0.99841000  1.0
  O  O146  1  0.75836000  0.73249000  0.08405000  1.0
  O  O147  1  0.63513000  0.62871000  0.00149000  1.0
  O  O148  1  0.05913000  0.19261000  0.51515000  1.0
  O  O149  1  0.33499000  0.15613000  0.50730000  1.0
  O  O150  1  0.23418000  0.25895000  0.59585000  1.0
  O  O151  1  0.64357000  0.24181000  0.55367000  1.0
  O  O152  1  0.77982000  0.31234000  0.64459000  1.0
  O  O153  1  0.83794000  0.35122000  0.55540000  1.0
  O  O154  1  0.37445000  0.53008000  0.29698000  1.0
  O  O155  1  0.59957000  0.44007000  0.26917000  1.0
  O  O156  1  0.36527000  0.40330000  0.21002000  1.0
  O  O157  1  0.61065000  0.66414000  0.17377000  1.0
  O  O158  1  0.38213000  0.66494000  0.23289000  1.0
  O  O159  1  0.61904000  0.71979000  0.28278000  1.0
  O  O160  1  0.11852000  0.98661000  0.25241000  1.0
  O  O161  1  0.14038000  0.13651000  0.30267000  1.0
  O  O162  1  0.93810000  0.08501000  0.22839000  1.0
  O  O163  1  0.15003000  0.80749000  0.24836000  1.0
  O  O164  1  0.93659000  0.78906000  0.30963000  1.0
  O  O165  1  0.91287000  0.74865000  0.20103000  1.0
  O  O166  1  0.29014000  0.88543000  0.14801000  1.0
  O  O167  1  0.37183000  0.75686000  0.07163000  1.0
  O  O168  1  0.10624000  0.80818000  0.07457000  1.0
  O  O169  1  0.41071000  0.33885000  0.50138000  1.0
  O  O170  1  0.25897000  0.26820000  0.41570000  1.0
  O  O171  1  0.13377000  0.37140000  0.49814000  1.0
  O  O172  1  0.56509000  0.80947000  0.98613000  1.0
  O  O173  1  0.84104000  0.84683000  0.99118000  1.0
  O  O174  1  0.73595000  0.74245000  0.90430000  1.0
  O  O175  1  0.14489000  0.75711000  0.94539000  1.0
  O  O176  1  0.28143000  0.68681000  0.85480000  1.0
  O  O177  1  0.34344000  0.64989000  0.94428000  1.0
  O  O178  1  0.87464000  0.46938000  0.20264000  1.0
  O  O179  1  0.10073000  0.55889000  0.23062000  1.0
  O  O180  1  0.86634000  0.59600000  0.28953000  1.0
  O  O181  1  0.11020000  0.33582000  0.32638000  1.0
  O  O182  1  0.88168000  0.33525000  0.26729000  1.0
  O  O183  1  0.11844000  0.28014000  0.21748000  1.0
