data_image0
_chemical_formula_structural       Zn24P32H32O96
_chemical_formula_sum              "Zn24 P32 H32 O96"
_cell_length_a       17.0323
_cell_length_b       9.06338
_cell_length_c       24.5579
_cell_angle_alpha    89.9998
_cell_angle_beta     107.472
_cell_angle_gamma    90

_space_group_name_H-M_alt    "P 1"
_space_group_IT_number       1

loop_
  _space_group_symop_operation_xyz
  'x, y, z'

loop_
  _atom_site_type_symbol
  _atom_site_label
  _atom_site_symmetry_multiplicity
  _atom_site_fract_x
  _atom_site_fract_y
  _atom_site_fract_z
  _atom_site_occupancy
  Zn  Zn1       1.0  0.10629  0.75801  0.27142  1.0000
  Zn  Zn2       1.0  0.75579  0.72476  0.16434  1.0000
  Zn  Zn3       1.0  0.22745  0.48941  0.49468  1.0000
  Zn  Zn4       1.0  0.29113  0.98105  0.49893  1.0000
  Zn  Zn5       1.0  0.29105  0.29821  0.17638  1.0000
  Zn  Zn6       1.0  0.38342  0.74294  0.72159  1.0000
  Zn  Zn7       1.0  0.89323  0.25726  0.22752  1.0000
  Zn  Zn8       1.0  0.24335  0.22443  0.33461  1.0000
  Zn  Zn9       1.0  0.77121  0.99023  0.00498  1.0000
  Zn  Zn10      1.0  0.70923  0.48529  0.00071  1.0000
  Zn  Zn11      1.0  0.70883  0.79879  0.32336  1.0000
  Zn  Zn12      1.0  0.61671  0.24284  0.77848  1.0000
  Zn  Zn13      1.0  0.89319  0.24283  0.72816  1.0000
  Zn  Zn14      1.0  0.24398  0.27586  0.83543  1.0000
  Zn  Zn15      1.0  0.77180  0.51106  0.50487  1.0000
  Zn  Zn16      1.0  0.70859  0.01894  0.50086  1.0000
  Zn  Zn17      1.0  0.70910  0.70244  0.82375  1.0000
  Zn  Zn18      1.0  0.61649  0.25672  0.27818  1.0000
  Zn  Zn19      1.0  0.10662  0.74250  0.77230  1.0000
  Zn  Zn20      1.0  0.75602  0.77523  0.66485  1.0000
  Zn  Zn21      1.0  0.22688  0.00881  0.99562  1.0000
  Zn  Zn22      1.0  0.28961  0.51504  0.99903  1.0000
  Zn  Zn23      1.0  0.29135  0.20090  0.67666  1.0000
  Zn  Zn24      1.0  0.38393  0.75667  0.22232  1.0000
  P   P1        1.0  0.92717  0.59618  0.25294  1.0000
  P   P2        1.0  0.19101  0.48165  0.24440  1.0000
  P   P3        1.0  0.16720  0.76977  0.41317  1.0000
  P   P4        1.0  0.65055  0.77972  0.03503  1.0000
  P   P5        1.0  0.18043  0.19978  0.54651  1.0000
  P   P6        1.0  0.32245  0.71635  0.58862  1.0000
  P   P7        1.0  0.44264  0.43047  0.27043  1.0000
  P   P8        1.0  0.65617  0.55040  0.23040  1.0000
  P   P9        1.0  0.07236  0.09565  0.24466  1.0000
  P   P10       1.0  0.80897  0.98124  0.25521  1.0000
  P   P11       1.0  0.83042  0.26858  0.08595  1.0000
  P   P12       1.0  0.34804  0.27848  0.46396  1.0000
  P   P13       1.0  0.82114  0.70454  0.95396  1.0000
  P   P14       1.0  0.67750  0.21864  0.91144  1.0000
  P   P15       1.0  0.55717  0.93151  0.22952  1.0000
  P   P16       1.0  0.34375  0.05029  0.26952  1.0000
  P   P17       1.0  0.07262  0.40365  0.74671  1.0000
  P   P18       1.0  0.80872  0.51879  0.75566  1.0000
  P   P19       1.0  0.83232  0.23083  0.58642  1.0000
  P   P20       1.0  0.34816  0.22023  0.96495  1.0000
  P   P21       1.0  0.81940  0.80028  0.45346  1.0000
  P   P22       1.0  0.67725  0.28350  0.41108  1.0000
  P   P23       1.0  0.55765  0.56922  0.72990  1.0000
  P   P24       1.0  0.34380  0.44946  0.76954  1.0000
  P   P25       1.0  0.92716  0.90369  0.75364  1.0000
  P   P26       1.0  0.19144  0.01856  0.74513  1.0000
  P   P27       1.0  0.16737  0.73021  0.91405  1.0000
  P   P28       1.0  0.65097  0.72130  0.53531  1.0000
  P   P29       1.0  0.17863  0.29685  0.04666  1.0000
  P   P30       1.0  0.32343  0.78009  0.08921  1.0000
  P   P31       1.0  0.44311  0.06806  0.77053  1.0000
  P   P32       1.0  0.65611  0.94990  0.73026  1.0000
  H   H1        1.0  0.91814  0.68659  0.29737  1.0000
  H   H2        1.0  0.11086  0.43129  0.23912  1.0000
  H   H3        1.0  0.11732  0.81275  0.44689  1.0000
  H   H4        1.0  0.58512  0.81258  0.05681  1.0000
  H   H5        1.0  0.11417  0.17164  0.56811  1.0000
  H   H6        1.0  0.38491  0.60883  0.60176  1.0000
  H   H7        1.0  0.39656  0.38397  0.30626  1.0000
  H   H8        1.0  0.57656  0.58850  0.23169  1.0000
  H   H9        1.0  0.08112  0.18536  0.20001  1.0000
  H   H10       1.0  0.88900  0.93080  0.26015  1.0000
  H   H11       1.0  0.88015  0.30503  0.05139  1.0000
  H   H12       1.0  0.41332  0.31127  0.44192  1.0000
  H   H13       1.0  0.88813  0.67700  0.93311  1.0000
  H   H14       1.0  0.61444  0.11233  0.89899  1.0000
  H   H15       1.0  0.60284  0.88444  0.19350  1.0000
  H   H16       1.0  0.42330  0.08855  0.26816  1.0000
  H   H17       1.0  0.08155  0.31322  0.70226  1.0000
  H   H18       1.0  0.88882  0.56944  0.76099  1.0000
  H   H19       1.0  0.88216  0.18808  0.55265  1.0000
  H   H20       1.0  0.41368  0.18674  0.94326  1.0000
  H   H21       1.0  0.88564  0.82831  0.43184  1.0000
  H   H22       1.0  0.61467  0.39077  0.39781  1.0000
  H   H23       1.0  0.60353  0.61539  0.69389  1.0000
  H   H24       1.0  0.42343  0.41118  0.76835  1.0000
  H   H25       1.0  0.91810  0.81351  0.79810  1.0000
  H   H26       1.0  0.11139  0.06904  0.74008  1.0000
  H   H27       1.0  0.11754  0.68984  0.94803  1.0000
  H   H28       1.0  0.58538  0.68863  0.55705  1.0000
  H   H29       1.0  0.11286  0.32684  0.06855  1.0000
  H   H30       1.0  0.38724  0.88498  0.10185  1.0000
  H   H31       1.0  0.39703  0.11382  0.80645  1.0000
  H   H32       1.0  0.57652  0.91145  0.73152  1.0000
  O   O1        1.0  0.01335  0.61855  0.24681  1.0000
  O   O2        1.0  0.86336  0.64019  0.19667  1.0000
  O   O3        1.0  0.91534  0.43790  0.27098  1.0000
  O   O4        1.0  0.19214  0.65029  0.25078  1.0000
  O   O5        1.0  0.21076  0.43647  0.18976  1.0000
  O   O6        1.0  0.25070  0.41342  0.29840  1.0000
  O   O7        1.0  0.11465  0.79078  0.35109  1.0000
  O   O8        1.0  0.24367  0.86997  0.42780  1.0000
  O   O9        1.0  0.18990  0.60571  0.42487  1.0000
  O   O10       1.0  0.66054  0.91036  0.99769  1.0000
  O   O11       1.0  0.73155  0.76041  0.08387  1.0000
  O   O12       1.0  0.62757  0.63454  0.00182  1.0000
  O   O13       1.0  0.19243  0.05928  0.51505  1.0000
  O   O14       1.0  0.15591  0.33516  0.50732  1.0000
  O   O15       1.0  0.25879  0.23394  0.59585  1.0000
  O   O16       1.0  0.24142  0.64382  0.55333  1.0000
  O   O17       1.0  0.31223  0.77937  0.64439  1.0000
  O   O18       1.0  0.35100  0.83788  0.55517  1.0000
  O   O19       1.0  0.53016  0.37313  0.29720  1.0000
  O   O20       1.0  0.44091  0.59928  0.26977  1.0000
  O   O21       1.0  0.40355  0.36564  0.21024  1.0000
  O   O22       1.0  0.66408  0.61081  0.17376  1.0000
  O   O23       1.0  0.66489  0.38199  0.23275  1.0000
  O   O24       1.0  0.71977  0.61876  0.28276  1.0000
  O   O25       1.0  0.98644  0.11820  0.25123  1.0000
  O   O26       1.0  0.13634  0.13961  0.30087  1.0000
  O   O27       1.0  0.08419  0.93709  0.22683  1.0000
  O   O28       1.0  0.80799  0.14986  0.24886  1.0000
  O   O29       1.0  0.78957  0.93604  0.30998  1.0000
  O   O30       1.0  0.74894  0.91289  0.20139  1.0000
  O   O31       1.0  0.88413  0.28965  0.14767  1.0000
  O   O32       1.0  0.75605  0.37384  0.07170  1.0000
  O   O33       1.0  0.80363  0.10596  0.07517  1.0000
  O   O34       1.0  0.33789  0.41069  0.50054  1.0000
  O   O35       1.0  0.26703  0.25786  0.41517  1.0000
  O   O36       1.0  0.37091  0.13391  0.49758  1.0000
  O   O37       1.0  0.80811  0.56446  0.98524  1.0000
  O   O38       1.0  0.84558  0.83980  0.99340  1.0000
  O   O39       1.0  0.74343  0.73967  0.90431  1.0000
  O   O40       1.0  0.75825  0.14536  0.94677  1.0000
  O   O41       1.0  0.68793  0.27953  0.85543  1.0000
  O   O42       1.0  0.64961  0.34218  0.94432  1.0000
  O   O43       1.0  0.46946  0.87476  0.20305  1.0000
  O   O44       1.0  0.55955  0.10028  0.23014  1.0000
  O   O45       1.0  0.59634  0.86662  0.28968  1.0000
  O   O46       1.0  0.33578  0.11124  0.32608  1.0000
  O   O47       1.0  0.33524  0.88183  0.26752  1.0000
  O   O48       1.0  0.28006  0.11816  0.21710  1.0000
  O   O49       1.0  0.98641  0.38179  0.75283  1.0000
  O   O50       1.0  0.13630  0.35934  0.80298  1.0000
  O   O51       1.0  0.08492  0.56183  0.72876  1.0000
  O   O52       1.0  0.80769  0.35016  0.74923  1.0000
  O   O53       1.0  0.78892  0.56336  0.81033  1.0000
  O   O54       1.0  0.74903  0.58708  0.70167  1.0000
  O   O55       1.0  0.88501  0.21036  0.64847  1.0000
  O   O56       1.0  0.75606  0.13014  0.57194  1.0000
  O   O57       1.0  0.80925  0.39471  0.57466  1.0000
  O   O58       1.0  0.33718  0.08882  0.00159  1.0000
  O   O59       1.0  0.26751  0.24164  0.91595  1.0000
  O   O60       1.0  0.37129  0.36487  0.99851  1.0000
  O   O61       1.0  0.80739  0.94087  0.48485  1.0000
  O   O62       1.0  0.84387  0.66501  0.49270  1.0000
  O   O63       1.0  0.74105  0.76582  0.40415  1.0000
  O   O64       1.0  0.75819  0.35643  0.44633  1.0000
  O   O65       1.0  0.68766  0.22018  0.35541  1.0000
  O   O66       1.0  0.64878  0.16206  0.44460  1.0000
  O   O67       1.0  0.46992  0.62555  0.70302  1.0000
  O   O68       1.0  0.55993  0.40043  0.73083  1.0000
  O   O69       1.0  0.59670  0.63473  0.78998  1.0000
  O   O70       1.0  0.33586  0.38935  0.82623  1.0000
  O   O71       1.0  0.33506  0.61787  0.76711  1.0000
  O   O72       1.0  0.28021  0.38096  0.71722  1.0000
  O   O73       1.0  0.01339  0.88148  0.74759  1.0000
  O   O74       1.0  0.86349  0.85962  0.69733  1.0000
  O   O75       1.0  0.91499  0.06190  0.77161  1.0000
  O   O76       1.0  0.19251  0.84997  0.75164  1.0000
  O   O77       1.0  0.21094  0.06341  0.69037  1.0000
  O   O78       1.0  0.25135  0.08713  0.79897  1.0000
  O   O79       1.0  0.11457  0.70986  0.85199  1.0000
  O   O80       1.0  0.24314  0.62817  0.92837  1.0000
  O   O81       1.0  0.19182  0.89376  0.92543  1.0000
  O   O82       1.0  0.66115  0.58929  0.49862  1.0000
  O   O83       1.0  0.73180  0.74103  0.58430  1.0000
  O   O84       1.0  0.62860  0.86623  0.50186  1.0000
  O   O85       1.0  0.19053  0.43491  0.01387  1.0000
  O   O86       1.0  0.15317  0.15896  0.00882  1.0000
  O   O87       1.0  0.25755  0.26405  0.09570  1.0000
  O   O88       1.0  0.24289  0.85511  0.05461  1.0000
  O   O89       1.0  0.31319  0.71857  0.14520  1.0000
  O   O90       1.0  0.35011  0.65656  0.05572  1.0000
  O   O91       1.0  0.53062  0.12536  0.79736  1.0000
  O   O92       1.0  0.44111  0.89927  0.76938  1.0000
  O   O93       1.0  0.40400  0.13366  0.71047  1.0000
  O   O94       1.0  0.66418  0.88980  0.67362  1.0000
  O   O95       1.0  0.66475  0.11832  0.73271  1.0000
  O   O96       1.0  0.71986  0.88156  0.78252  1.0000
