# generated using pymatgen
data_Cu2H11C24(NO5)2
_symmetry_space_group_name_H-M   'P 1'
_cell_length_a   18.96090000
_cell_length_b   18.96090000
_cell_length_c   34.74060000
_cell_angle_alpha   90.00000000
_cell_angle_beta   90.00000000
_cell_angle_gamma   89.99980000
_symmetry_Int_Tables_number   1
_chemical_formula_structural   Cu2H11C24(NO5)2
_chemical_formula_sum   'Cu16 H88 C192 N16 O80'
_cell_volume   12489.79212822
_cell_formula_units_Z   8
loop_
 _symmetry_equiv_pos_site_id
 _symmetry_equiv_pos_as_xyz
  1  'x, y, z'
loop_
 _atom_site_type_symbol
 _atom_site_label
 _atom_site_symmetry_multiplicity
 _atom_site_fract_x
 _atom_site_fract_y
 _atom_site_fract_z
 _atom_site_occupancy
  Cu  Cu0  1  0.70750000  0.73250000  0.22324000  1.0
  Cu  Cu1  1  0.29250000  0.26750000  0.22324000  1.0
  Cu  Cu2  1  0.26750000  0.70750000  0.22324000  1.0
  Cu  Cu3  1  0.73250000  0.29250000  0.22324000  1.0
  Cu  Cu4  1  0.20750000  0.76750000  0.27676000  1.0
  Cu  Cu5  1  0.79250000  0.23250000  0.27676000  1.0
  Cu  Cu6  1  0.76750000  0.79250000  0.27676000  1.0
  Cu  Cu7  1  0.23250000  0.20750000  0.27676000  1.0
  Cu  Cu8  1  0.29250000  0.26750000  0.77676000  1.0
  Cu  Cu9  1  0.70749000  0.73249000  0.77678000  1.0
  Cu  Cu10  1  0.73251000  0.29251000  0.77678000  1.0
  Cu  Cu11  1  0.26751000  0.70750000  0.77676000  1.0
  Cu  Cu12  1  0.79250000  0.23249000  0.72324000  1.0
  Cu  Cu13  1  0.20748000  0.76749000  0.72322000  1.0
  Cu  Cu14  1  0.23250000  0.20750000  0.72324000  1.0
  Cu  Cu15  1  0.76751000  0.79252000  0.72322000  1.0
  H  H16  1  0.54827000  0.01520000  0.06202000  1.0
  H  H17  1  0.64067000  0.96906000  0.09267000  1.0
  H  H18  1  0.67961000  0.90202000  0.14556000  1.0
  H  H19  1  0.75651000  0.01255000  0.24520000  1.0
  H  H20  1  0.70351000  0.12878000  0.14259000  1.0
  H  H21  1  0.45173000  0.98480000  0.06202000  1.0
  H  H22  1  0.35933000  0.03094000  0.09267000  1.0
  H  H23  1  0.32039000  0.09798000  0.14556000  1.0
  H  H24  1  0.24349000  0.98745000  0.24520000  1.0
  H  H25  1  0.29649000  0.87122000  0.14259000  1.0
  H  H26  1  0.98480000  0.54827000  0.06202000  1.0
  H  H27  1  0.03094000  0.64067000  0.09267000  1.0
  H  H28  1  0.09798000  0.67961000  0.14556000  1.0
  H  H29  1  0.98745000  0.75651000  0.24520000  1.0
  H  H30  1  0.87121000  0.70351000  0.14259000  1.0
  H  H31  1  0.01520000  0.45173000  0.06202000  1.0
  H  H32  1  0.96906000  0.35933000  0.09267000  1.0
  H  H33  1  0.90202000  0.32039000  0.14556000  1.0
  H  H34  1  0.01255000  0.24349000  0.24520000  1.0
  H  H35  1  0.12879000  0.29649000  0.14259000  1.0
  H  H36  1  0.04827000  0.48480000  0.43798000  1.0
  H  H37  1  0.14067000  0.53094000  0.40733000  1.0
  H  H38  1  0.17961000  0.59798000  0.35444000  1.0
  H  H39  1  0.25651000  0.48745000  0.25479000  1.0
  H  H40  1  0.20351000  0.37121000  0.35741000  1.0
  H  H41  1  0.95173000  0.51520000  0.43798000  1.0
  H  H42  1  0.85933000  0.46906000  0.40733000  1.0
  H  H43  1  0.82039000  0.40202000  0.35444000  1.0
  H  H44  1  0.74349000  0.51255000  0.25480000  1.0
  H  H45  1  0.79649000  0.62879000  0.35741000  1.0
  H  H46  1  0.48480000  0.95173000  0.43798000  1.0
  H  H47  1  0.53094000  0.85933000  0.40733000  1.0
  H  H48  1  0.59798000  0.82039000  0.35444000  1.0
  H  H49  1  0.48745000  0.74349000  0.25480000  1.0
  H  H50  1  0.37122000  0.79649000  0.35741000  1.0
  H  H51  1  0.51520000  0.04827000  0.43798000  1.0
  H  H52  1  0.46906000  0.14067000  0.40733000  1.0
  H  H53  1  0.40202000  0.17961000  0.35444000  1.0
  H  H54  1  0.51255000  0.25651000  0.25480000  1.0
  H  H55  1  0.62878000  0.20351000  0.35741000  1.0
  H  H56  1  0.45173000  0.98480000  0.93795000  1.0
  H  H57  1  0.35933000  0.03095000  0.90731000  1.0
  H  H58  1  0.32039000  0.09799000  0.85442000  1.0
  H  H59  1  0.24348000  0.98745000  0.75478000  1.0
  H  H60  1  0.29649000  0.87122000  0.85739000  1.0
  H  H61  1  0.54827000  0.01520000  0.93795000  1.0
  H  H62  1  0.64067000  0.96905000  0.90731000  1.0
  H  H63  1  0.67961000  0.90201000  0.85442000  1.0
  H  H64  1  0.75652000  0.01255000  0.75478000  1.0
  H  H65  1  0.70351000  0.12878000  0.85739000  1.0
  H  H66  1  0.01520000  0.45173000  0.93795000  1.0
  H  H67  1  0.96905000  0.35935000  0.90731000  1.0
  H  H68  1  0.90202000  0.32041000  0.85442000  1.0
  H  H69  1  0.01255000  0.24348000  0.75478000  1.0
  H  H70  1  0.12878000  0.29649000  0.85739000  1.0
  H  H71  1  0.98479000  0.54826000  0.93795000  1.0
  H  H72  1  0.03094000  0.64066000  0.90730000  1.0
  H  H73  1  0.09797000  0.67961000  0.85441000  1.0
  H  H74  1  0.98747000  0.75653000  0.75476000  1.0
  H  H75  1  0.87120000  0.70345000  0.85738000  1.0
  H  H76  1  0.95174000  0.51521000  0.56205000  1.0
  H  H77  1  0.85934000  0.46906000  0.59269000  1.0
  H  H78  1  0.82039000  0.40203000  0.64559000  1.0
  H  H79  1  0.74352000  0.51255000  0.74525000  1.0
  H  H80  1  0.79655000  0.62880000  0.64262000  1.0
  H  H81  1  0.04827000  0.48480000  0.56205000  1.0
  H  H82  1  0.14065000  0.53095000  0.59269000  1.0
  H  H83  1  0.17959000  0.59798000  0.64558000  1.0
  H  H84  1  0.25653000  0.48745000  0.74522000  1.0
  H  H85  1  0.20351000  0.37122000  0.64261000  1.0
  H  H86  1  0.51520000  0.04827000  0.56205000  1.0
  H  H87  1  0.46905000  0.14067000  0.59269000  1.0
  H  H88  1  0.40201000  0.17961000  0.64558000  1.0
  H  H89  1  0.51255000  0.25652000  0.74522000  1.0
  H  H90  1  0.62878000  0.20351000  0.64261000  1.0
  H  H91  1  0.48480000  0.95173000  0.56205000  1.0
  H  H92  1  0.53095000  0.85933000  0.59269000  1.0
  H  H93  1  0.59799000  0.82039000  0.64558000  1.0
  H  H94  1  0.48745000  0.74348000  0.74522000  1.0
  H  H95  1  0.37122000  0.79649000  0.64261000  1.0
  H  H96  1  0.73234000  0.08231000  0.99999000  1.0
  H  H97  1  0.26766000  0.91769000  0.99999000  1.0
  H  H98  1  0.91769000  0.73234000  0.99999000  1.0
  H  H99  1  0.08231000  0.26766000  0.99999000  1.0
  H  H100  1  0.23234000  0.41769000  0.50001000  1.0
  H  H101  1  0.76766000  0.58231000  0.50001000  1.0
  H  H102  1  0.41769000  0.76766000  0.50001000  1.0
  H  H103  1  0.58231000  0.23234000  0.50001000  1.0
  C  C104  1  0.57454000  0.02268000  0.03444000  1.0
  C  C105  1  0.64426000  0.04692000  0.03464000  1.0
  C  C106  1  0.68189000  0.06127000  0.07185000  1.0
  C  C107  1  0.68981000  0.01555000  0.13907000  1.0
  C  C108  1  0.69409000  0.95177000  0.15919000  1.0
  C  C109  1  0.71817000  0.95068000  0.19722000  1.0
  C  C110  1  0.73736000  0.01337000  0.21569000  1.0
  C  C111  1  0.73050000  0.07714000  0.19585000  1.0
  C  C112  1  0.70750000  0.07871000  0.15757000  1.0
  C  C113  1  0.72430000  0.88158000  0.21757000  1.0
  C  C114  1  0.74469000  0.14553000  0.21584000  1.0
  C  C115  1  0.42546000  0.97732000  0.03444000  1.0
  C  C116  1  0.35574000  0.95308000  0.03464000  1.0
  C  C117  1  0.31811000  0.93873000  0.07185000  1.0
  C  C118  1  0.31019000  0.98445000  0.13907000  1.0
  C  C119  1  0.30591000  0.04823000  0.15919000  1.0
  C  C120  1  0.28183000  0.04932000  0.19722000  1.0
  C  C121  1  0.26264000  0.98663000  0.21569000  1.0
  C  C122  1  0.26950000  0.92286000  0.19585000  1.0
  C  C123  1  0.29250000  0.92129000  0.15757000  1.0
  C  C124  1  0.27570000  0.11842000  0.21757000  1.0
  C  C125  1  0.25531000  0.85447000  0.21584000  1.0
  C  C126  1  0.97732000  0.57454000  0.03444000  1.0
  C  C127  1  0.95307000  0.64426000  0.03464000  1.0
  C  C128  1  0.93873000  0.68189000  0.07185000  1.0
  C  C129  1  0.98445000  0.68981000  0.13907000  1.0
  C  C130  1  0.04823000  0.69409000  0.15919000  1.0
  C  C131  1  0.04931000  0.71817000  0.19722000  1.0
  C  C132  1  0.98663000  0.73736000  0.21569000  1.0
  C  C133  1  0.92285000  0.73050000  0.19585000  1.0
  C  C134  1  0.92129000  0.70750000  0.15757000  1.0
  C  C135  1  0.11842000  0.72430000  0.21757000  1.0
  C  C136  1  0.85447000  0.74469000  0.21584000  1.0
  C  C137  1  0.02268000  0.42546000  0.03444000  1.0
  C  C138  1  0.04693000  0.35574000  0.03464000  1.0
  C  C139  1  0.06127000  0.31811000  0.07185000  1.0
  C  C140  1  0.01555000  0.31019000  0.13907000  1.0
  C  C141  1  0.95177000  0.30591000  0.15919000  1.0
  C  C142  1  0.95069000  0.28183000  0.19722000  1.0
  C  C143  1  0.01337000  0.26264000  0.21569000  1.0
  C  C144  1  0.07715000  0.26950000  0.19585000  1.0
  C  C145  1  0.07871000  0.29250000  0.15757000  1.0
  C  C146  1  0.88158000  0.27570000  0.21757000  1.0
  C  C147  1  0.14553000  0.25531000  0.21584000  1.0
  C  C148  1  0.07454000  0.47732000  0.46556000  1.0
  C  C149  1  0.14426000  0.45307000  0.46536000  1.0
  C  C150  1  0.18189000  0.43873000  0.42815000  1.0
  C  C151  1  0.18981000  0.48445000  0.36093000  1.0
  C  C152  1  0.19409000  0.54823000  0.34081000  1.0
  C  C153  1  0.21817000  0.54931000  0.30278000  1.0
  C  C154  1  0.23736000  0.48663000  0.28431000  1.0
  C  C155  1  0.23050000  0.42286000  0.30415000  1.0
  C  C156  1  0.20750000  0.42129000  0.34243000  1.0
  C  C157  1  0.22430000  0.61842000  0.28243000  1.0
  C  C158  1  0.24469000  0.35447000  0.28416000  1.0
  C  C159  1  0.92546000  0.52268000  0.46556000  1.0
  C  C160  1  0.85574000  0.54693000  0.46536000  1.0
  C  C161  1  0.81811000  0.56127000  0.42815000  1.0
  C  C162  1  0.81019000  0.51555000  0.36093000  1.0
  C  C163  1  0.80591000  0.45177000  0.34081000  1.0
  C  C164  1  0.78183000  0.45069000  0.30278000  1.0
  C  C165  1  0.76264000  0.51337000  0.28431000  1.0
  C  C166  1  0.76950000  0.57715000  0.30415000  1.0
  C  C167  1  0.79250000  0.57871000  0.34243000  1.0
  C  C168  1  0.77570000  0.38158000  0.28243000  1.0
  C  C169  1  0.75531000  0.64553000  0.28416000  1.0
  C  C170  1  0.47732000  0.92546000  0.46556000  1.0
  C  C171  1  0.45308000  0.85574000  0.46536000  1.0
  C  C172  1  0.43873000  0.81811000  0.42815000  1.0
  C  C173  1  0.48445000  0.81019000  0.36093000  1.0
  C  C174  1  0.54823000  0.80591000  0.34081000  1.0
  C  C175  1  0.54932000  0.78183000  0.30278000  1.0
  C  C176  1  0.48663000  0.76264000  0.28431000  1.0
  C  C177  1  0.42286000  0.76950000  0.30415000  1.0
  C  C178  1  0.42129000  0.79250000  0.34243000  1.0
  C  C179  1  0.61842000  0.77570000  0.28243000  1.0
  C  C180  1  0.35447000  0.75531000  0.28416000  1.0
  C  C181  1  0.52268000  0.07454000  0.46556000  1.0
  C  C182  1  0.54692000  0.14426000  0.46536000  1.0
  C  C183  1  0.56127000  0.18189000  0.42815000  1.0
  C  C184  1  0.51555000  0.18981000  0.36093000  1.0
  C  C185  1  0.45177000  0.19409000  0.34081000  1.0
  C  C186  1  0.45068000  0.21817000  0.30278000  1.0
  C  C187  1  0.51337000  0.23736000  0.28431000  1.0
  C  C188  1  0.57714000  0.23050000  0.30415000  1.0
  C  C189  1  0.57871000  0.20750000  0.34243000  1.0
  C  C190  1  0.38158000  0.22430000  0.28243000  1.0
  C  C191  1  0.64553000  0.24469000  0.28416000  1.0
  C  C192  1  0.42547000  0.97731000  0.96554000  1.0
  C  C193  1  0.35574000  0.95307000  0.96533000  1.0
  C  C194  1  0.31812000  0.93873000  0.92812000  1.0
  C  C195  1  0.31019000  0.98445000  0.86091000  1.0
  C  C196  1  0.30591000  0.04823000  0.84079000  1.0
  C  C197  1  0.28183000  0.04932000  0.80276000  1.0
  C  C198  1  0.26264000  0.98663000  0.78429000  1.0
  C  C199  1  0.26950000  0.92286000  0.80414000  1.0
  C  C200  1  0.29250000  0.92129000  0.84241000  1.0
  C  C201  1  0.27569000  0.11842000  0.78241000  1.0
  C  C202  1  0.25530000  0.85448000  0.78415000  1.0
  C  C203  1  0.57453000  0.02268000  0.96554000  1.0
  C  C204  1  0.64426000  0.04693000  0.96533000  1.0
  C  C205  1  0.68188000  0.06127000  0.92812000  1.0
  C  C206  1  0.68980000  0.01555000  0.86091000  1.0
  C  C207  1  0.69409000  0.95177000  0.84079000  1.0
  C  C208  1  0.71818000  0.95068000  0.80276000  1.0
  C  C209  1  0.73737000  0.01337000  0.78429000  1.0
  C  C210  1  0.73050000  0.07714000  0.80414000  1.0
  C  C211  1  0.70750000  0.07870000  0.84241000  1.0
  C  C212  1  0.72431000  0.88158000  0.78241000  1.0
  C  C213  1  0.74470000  0.14552000  0.78415000  1.0
  C  C214  1  0.02269000  0.42547000  0.96554000  1.0
  C  C215  1  0.04693000  0.35574000  0.96533000  1.0
  C  C216  1  0.06127000  0.31812000  0.92812000  1.0
  C  C217  1  0.01555000  0.31019000  0.86091000  1.0
  C  C218  1  0.95177000  0.30591000  0.84079000  1.0
  C  C219  1  0.95068000  0.28184000  0.80276000  1.0
  C  C220  1  0.01337000  0.26264000  0.78429000  1.0
  C  C221  1  0.07714000  0.26950000  0.80414000  1.0
  C  C222  1  0.07871000  0.29250000  0.84241000  1.0
  C  C223  1  0.88158000  0.27570000  0.78241000  1.0
  C  C224  1  0.14552000  0.25530000  0.78415000  1.0
  C  C225  1  0.97732000  0.57453000  0.96553000  1.0
  C  C226  1  0.95307000  0.64426000  0.96533000  1.0
  C  C227  1  0.93871000  0.68187000  0.92812000  1.0
  C  C228  1  0.98443000  0.68980000  0.86092000  1.0
  C  C229  1  0.04821000  0.69405000  0.84077000  1.0
  C  C230  1  0.04931000  0.71811000  0.80275000  1.0
  C  C231  1  0.98662000  0.73747000  0.78429000  1.0
  C  C232  1  0.92287000  0.73070000  0.80420000  1.0
  C  C233  1  0.92129000  0.70757000  0.84244000  1.0
  C  C234  1  0.11843000  0.72430000  0.78240000  1.0
  C  C235  1  0.85444000  0.74486000  0.78422000  1.0
  C  C236  1  0.92547000  0.52268000  0.53447000  1.0
  C  C237  1  0.85574000  0.54693000  0.53467000  1.0
  C  C238  1  0.81813000  0.56129000  0.57188000  1.0
  C  C239  1  0.81021000  0.51557000  0.63908000  1.0
  C  C240  1  0.80594000  0.45179000  0.65922000  1.0
  C  C241  1  0.78187000  0.45069000  0.69725000  1.0
  C  C242  1  0.76261000  0.51337000  0.71573000  1.0
  C  C243  1  0.76942000  0.57713000  0.69583000  1.0
  C  C244  1  0.79248000  0.57871000  0.65757000  1.0
  C  C245  1  0.77570000  0.38157000  0.71760000  1.0
  C  C246  1  0.75515000  0.64554000  0.71581000  1.0
  C  C247  1  0.07453000  0.47731000  0.53446000  1.0
  C  C248  1  0.14426000  0.45307000  0.53467000  1.0
  C  C249  1  0.18188000  0.43873000  0.57188000  1.0
  C  C250  1  0.18981000  0.48445000  0.63909000  1.0
  C  C251  1  0.19409000  0.54824000  0.65921000  1.0
  C  C252  1  0.21816000  0.54932000  0.69724000  1.0
  C  C253  1  0.23736000  0.48663000  0.71571000  1.0
  C  C254  1  0.23050000  0.42286000  0.69586000  1.0
  C  C255  1  0.20750000  0.42129000  0.65759000  1.0
  C  C256  1  0.22430000  0.61842000  0.71759000  1.0
  C  C257  1  0.24470000  0.35448000  0.71585000  1.0
  C  C258  1  0.52269000  0.07453000  0.53446000  1.0
  C  C259  1  0.54693000  0.14426000  0.53467000  1.0
  C  C260  1  0.56127000  0.18188000  0.57188000  1.0
  C  C261  1  0.51555000  0.18981000  0.63909000  1.0
  C  C262  1  0.45177000  0.19409000  0.65921000  1.0
  C  C263  1  0.45068000  0.21817000  0.69724000  1.0
  C  C264  1  0.51337000  0.23736000  0.71571000  1.0
  C  C265  1  0.57714000  0.23050000  0.69586000  1.0
  C  C266  1  0.57871000  0.20750000  0.65759000  1.0
  C  C267  1  0.38158000  0.22431000  0.71759000  1.0
  C  C268  1  0.64552000  0.24470000  0.71585000  1.0
  C  C269  1  0.47732000  0.92547000  0.53446000  1.0
  C  C270  1  0.45307000  0.85574000  0.53467000  1.0
  C  C271  1  0.43873000  0.81812000  0.57188000  1.0
  C  C272  1  0.48445000  0.81020000  0.63909000  1.0
  C  C273  1  0.54823000  0.80591000  0.65921000  1.0
  C  C274  1  0.54932000  0.78182000  0.69724000  1.0
  C  C275  1  0.48663000  0.76263000  0.71571000  1.0
  C  C276  1  0.42286000  0.76950000  0.69586000  1.0
  C  C277  1  0.42130000  0.79250000  0.65759000  1.0
  C  C278  1  0.61842000  0.77569000  0.71759000  1.0
  C  C279  1  0.35448000  0.75530000  0.71585000  1.0
  C  C280  1  0.53750000  0.01131000  0.99999000  1.0
  C  C281  1  0.67894000  0.06101000  0.99999000  1.0
  C  C282  1  0.46250000  0.98869000  0.99999000  1.0
  C  C283  1  0.32106000  0.93899000  0.99999000  1.0
  C  C284  1  0.98869000  0.53750000  0.99999000  1.0
  C  C285  1  0.93898000  0.67894000  0.99999000  1.0
  C  C286  1  0.01131000  0.46250000  0.99999000  1.0
  C  C287  1  0.06101000  0.32106000  0.99999000  1.0
  C  C288  1  0.03750000  0.48869000  0.50001000  1.0
  C  C289  1  0.17894000  0.43899000  0.50001000  1.0
  C  C290  1  0.96250000  0.51131000  0.50001000  1.0
  C  C291  1  0.82106000  0.56102000  0.50001000  1.0
  C  C292  1  0.48869000  0.96251000  0.50001000  1.0
  C  C293  1  0.43899000  0.82106000  0.50001000  1.0
  C  C294  1  0.51131000  0.03750000  0.50001000  1.0
  C  C295  1  0.56101000  0.17894000  0.50001000  1.0
  N  N296  1  0.66511000  0.01423000  0.10091000  1.0
  N  N297  1  0.33489000  0.98577000  0.10091000  1.0
  N  N298  1  0.98576000  0.66511000  0.10091000  1.0
  N  N299  1  0.01424000  0.33489000  0.10091000  1.0
  N  N300  1  0.16511000  0.48576000  0.39909000  1.0
  N  N301  1  0.83489000  0.51424000  0.39909000  1.0
  N  N302  1  0.48577000  0.83489000  0.39909000  1.0
  N  N303  1  0.51423000  0.16511000  0.39909000  1.0
  N  N304  1  0.33490000  0.98577000  0.89907000  1.0
  N  N305  1  0.66510000  0.01423000  0.89907000  1.0
  N  N306  1  0.01423000  0.33489000  0.89907000  1.0
  N  N307  1  0.98577000  0.66512000  0.89906000  1.0
  N  N308  1  0.83489000  0.51423000  0.60093000  1.0
  N  N309  1  0.16511000  0.48577000  0.60093000  1.0
  N  N310  1  0.51423000  0.16510000  0.60093000  1.0
  N  N311  1  0.48577000  0.83490000  0.60093000  1.0
  O  O312  1  0.72313000  0.11088000  0.07571000  1.0
  O  O313  1  0.70132000  0.82726000  0.19968000  1.0
  O  O314  1  0.75248000  0.88252000  0.25100000  1.0
  O  O315  1  0.71964000  0.20061000  0.19948000  1.0
  O  O316  1  0.77891000  0.14353000  0.24748000  1.0
  O  O317  1  0.27687000  0.88912000  0.07571000  1.0
  O  O318  1  0.29869000  0.17273000  0.19968000  1.0
  O  O319  1  0.24752000  0.11748000  0.25100000  1.0
  O  O320  1  0.28036000  0.79939000  0.19947000  1.0
  O  O321  1  0.22109000  0.85647000  0.24748000  1.0
  O  O322  1  0.88912000  0.72313000  0.07571000  1.0
  O  O323  1  0.17273000  0.70132000  0.19968000  1.0
  O  O324  1  0.11748000  0.75248000  0.25100000  1.0
  O  O325  1  0.79939000  0.71964000  0.19947000  1.0
  O  O326  1  0.85647000  0.77891000  0.24748000  1.0
  O  O327  1  0.11088000  0.27687000  0.07571000  1.0
  O  O328  1  0.82727000  0.29868000  0.19968000  1.0
  O  O329  1  0.88252000  0.24752000  0.25100000  1.0
  O  O330  1  0.20061000  0.28036000  0.19947000  1.0
  O  O331  1  0.14353000  0.22109000  0.24748000  1.0
  O  O332  1  0.22313000  0.38912000  0.42429000  1.0
  O  O333  1  0.20132000  0.67273000  0.30032000  1.0
  O  O334  1  0.25248000  0.61748000  0.24900000  1.0
  O  O335  1  0.21964000  0.29939000  0.30053000  1.0
  O  O336  1  0.27891000  0.35647000  0.25252000  1.0
  O  O337  1  0.77686000  0.61088000  0.42429000  1.0
  O  O338  1  0.79868000  0.32727000  0.30032000  1.0
  O  O339  1  0.74752000  0.38252000  0.24900000  1.0
  O  O340  1  0.78036000  0.70061000  0.30053000  1.0
  O  O341  1  0.72109000  0.64353000  0.25252000  1.0
  O  O342  1  0.38912000  0.77687000  0.42429000  1.0
  O  O343  1  0.67273000  0.79869000  0.30032000  1.0
  O  O344  1  0.61748000  0.74752000  0.24900000  1.0
  O  O345  1  0.29939000  0.78036000  0.30053000  1.0
  O  O346  1  0.35647000  0.72109000  0.25252000  1.0
  O  O347  1  0.61088000  0.22313000  0.42429000  1.0
  O  O348  1  0.32726000  0.20132000  0.30032000  1.0
  O  O349  1  0.38252000  0.25248000  0.24900000  1.0
  O  O350  1  0.70061000  0.21964000  0.30052000  1.0
  O  O351  1  0.64353000  0.27891000  0.25252000  1.0
  O  O352  1  0.27688000  0.88912000  0.92426000  1.0
  O  O353  1  0.29867000  0.17273000  0.80031000  1.0
  O  O354  1  0.24751000  0.11748000  0.74899000  1.0
  O  O355  1  0.28035000  0.79940000  0.80051000  1.0
  O  O356  1  0.22108000  0.85647000  0.75251000  1.0
  O  O357  1  0.72312000  0.11088000  0.92426000  1.0
  O  O358  1  0.70134000  0.82727000  0.80031000  1.0
  O  O359  1  0.75249000  0.88251000  0.74899000  1.0
  O  O360  1  0.71965000  0.20059000  0.80051000  1.0
  O  O361  1  0.77892000  0.14352000  0.75251000  1.0
  O  O362  1  0.11089000  0.27688000  0.92426000  1.0
  O  O363  1  0.82726000  0.29864000  0.80031000  1.0
  O  O364  1  0.88253000  0.24752000  0.74898000  1.0
  O  O365  1  0.20060000  0.28036000  0.80051000  1.0
  O  O366  1  0.14353000  0.22108000  0.75251000  1.0
  O  O367  1  0.88913000  0.72313000  0.92425000  1.0
  O  O368  1  0.17272000  0.70131000  0.80032000  1.0
  O  O369  1  0.11746000  0.75251000  0.74900000  1.0
  O  O370  1  0.79939000  0.71968000  0.80053000  1.0
  O  O371  1  0.85651000  0.77886000  0.75250000  1.0
  O  O372  1  0.77687000  0.61087000  0.57575000  1.0
  O  O373  1  0.79869000  0.32728000  0.69968000  1.0
  O  O374  1  0.74749000  0.38253000  0.75100000  1.0
  O  O375  1  0.78036000  0.70059000  0.69949000  1.0
  O  O376  1  0.72108000  0.64351000  0.74750000  1.0
  O  O377  1  0.22312000  0.38911000  0.57574000  1.0
  O  O378  1  0.20136000  0.67274000  0.69969000  1.0
  O  O379  1  0.25248000  0.61747000  0.75102000  1.0
  O  O380  1  0.21964000  0.29940000  0.69949000  1.0
  O  O381  1  0.27892000  0.35647000  0.74749000  1.0
  O  O382  1  0.61088000  0.22312000  0.57574000  1.0
  O  O383  1  0.32727000  0.20133000  0.69969000  1.0
  O  O384  1  0.38252000  0.25249000  0.75101000  1.0
  O  O385  1  0.70060000  0.21965000  0.69949000  1.0
  O  O386  1  0.64353000  0.27892000  0.74749000  1.0
  O  O387  1  0.38912000  0.77688000  0.57574000  1.0
  O  O388  1  0.67273000  0.79866000  0.69969000  1.0
  O  O389  1  0.61749000  0.74751000  0.75101000  1.0
  O  O390  1  0.29941000  0.78035000  0.69949000  1.0
  O  O391  1  0.35648000  0.72108000  0.74749000  1.0
