# generated using pymatgen
data_AlPO4
_symmetry_space_group_name_H-M   'P 1'
_cell_length_a   9.48620000
_cell_length_b   18.72470000
_cell_length_c   18.72470000
_cell_angle_alpha   89.99990000
_cell_angle_beta   90.00000000
_cell_angle_gamma   90.00000000
_symmetry_Int_Tables_number   1
_chemical_formula_structural   AlPO4
_chemical_formula_sum   'Al24 P24 O96'
_cell_volume   3325.99822727
_cell_formula_units_Z   24
loop_
 _symmetry_equiv_pos_site_id
 _symmetry_equiv_pos_as_xyz
  1  'x, y, z'
loop_
 _atom_site_type_symbol
 _atom_site_label
 _atom_site_symmetry_multiplicity
 _atom_site_fract_x
 _atom_site_fract_y
 _atom_site_fract_z
 _atom_site_occupancy
  Al  Al0  1  0.84024000  0.16523000  0.95507000  1.0
  Al  Al1  1  0.91662000  0.06388000  0.16576000  1.0
  Al  Al2  1  0.33735000  0.05306000  0.06583000  1.0
  Al  Al3  1  0.83989000  0.33473000  0.54508000  1.0
  Al  Al4  1  0.91669000  0.43615000  0.33427000  1.0
  Al  Al5  1  0.33746000  0.44701000  0.43405000  1.0
  Al  Al6  1  0.84012000  0.04499000  0.66518000  1.0
  Al  Al7  1  0.91648000  0.83433000  0.56381000  1.0
  Al  Al8  1  0.33734000  0.93428000  0.55294000  1.0
  Al  Al9  1  0.84010000  0.45508000  0.83478000  1.0
  Al  Al10  1  0.91650000  0.66568000  0.93619000  1.0
  Al  Al11  1  0.33731000  0.56568000  0.94709000  1.0
  Al  Al12  1  0.15993000  0.83472000  0.04498000  1.0
  Al  Al13  1  0.08358000  0.93616000  0.83431000  1.0
  Al  Al14  1  0.66264000  0.94703000  0.93429000  1.0
  Al  Al15  1  0.15992000  0.66528000  0.45505000  1.0
  Al  Al16  1  0.08362000  0.56385000  0.66567000  1.0
  Al  Al17  1  0.66262000  0.55299000  0.56571000  1.0
  Al  Al18  1  0.15998000  0.95514000  0.33476000  1.0
  Al  Al19  1  0.08383000  0.16569000  0.43584000  1.0
  Al  Al20  1  0.66265000  0.06571000  0.44704000  1.0
  Al  Al21  1  0.16007000  0.54481000  0.16529000  1.0
  Al  Al22  1  0.08351000  0.33446000  0.06367000  1.0
  Al  Al23  1  0.66263000  0.43430000  0.05303000  1.0
  P  P24  1  0.09144000  0.16552000  0.06553000  1.0
  P  P25  1  0.84001000  0.04869000  0.83432000  1.0
  P  P26  1  0.66221000  0.06632000  0.05645000  1.0
  P  P27  1  0.09112000  0.33481000  0.43486000  1.0
  P  P28  1  0.84000000  0.45134000  0.66569000  1.0
  P  P29  1  0.66222000  0.43366000  0.44356000  1.0
  P  P30  1  0.09135000  0.93466000  0.66531000  1.0
  P  P31  1  0.84023000  0.16567000  0.54855000  1.0
  P  P32  1  0.66210000  0.94360000  0.56631000  1.0
  P  P33  1  0.09137000  0.56534000  0.83470000  1.0
  P  P34  1  0.83986000  0.33432000  0.95127000  1.0
  P  P35  1  0.66209000  0.55641000  0.93370000  1.0
  P  P36  1  0.90868000  0.83469000  0.93466000  1.0
  P  P37  1  0.16002000  0.95129000  0.16567000  1.0
  P  P38  1  0.33786000  0.93374000  0.94364000  1.0
  P  P39  1  0.90868000  0.66532000  0.56534000  1.0
  P  P40  1  0.16004000  0.54878000  0.33435000  1.0
  P  P41  1  0.33784000  0.56622000  0.55633000  1.0
  P  P42  1  0.90842000  0.06538000  0.33470000  1.0
  P  P43  1  0.16000000  0.83436000  0.45128000  1.0
  P  P44  1  0.33798000  0.05649000  0.43369000  1.0
  P  P45  1  0.90885000  0.43446000  0.16534000  1.0
  P  P46  1  0.15998000  0.66561000  0.04874000  1.0
  P  P47  1  0.33801000  0.44353000  0.06634000  1.0
  O  O48  1  0.00411000  0.15437000  0.99702000  1.0
  O  O49  1  0.23465000  0.12932000  0.05535000  1.0
  O  O50  1  0.01367000  0.13479000  0.13060000  1.0
  O  O51  1  0.11712000  0.24485000  0.07989000  1.0
  O  O52  1  0.83702000  0.12057000  0.87340000  1.0
  O  O53  1  0.98711000  0.01530000  0.84495000  1.0
  O  O54  1  0.80993000  0.06215000  0.75516000  1.0
  O  O55  1  0.72489000  0.99844000  0.86300000  1.0
  O  O56  1  0.75543000  0.05789000  0.12251000  1.0
  O  O57  1  0.67165000  0.99703000  0.01277000  1.0
  O  O58  1  0.70897000  0.13081000  0.01125000  1.0
  O  O59  1  0.51068000  0.07932000  0.08168000  1.0
  O  O60  1  0.00367000  0.34630000  0.50322000  1.0
  O  O61  1  0.23447000  0.37090000  0.44472000  1.0
  O  O62  1  0.01375000  0.36508000  0.36937000  1.0
  O  O63  1  0.11697000  0.25552000  0.42073000  1.0
  O  O64  1  0.83690000  0.37943000  0.62670000  1.0
  O  O65  1  0.98711000  0.48471000  0.65506000  1.0
  O  O66  1  0.80992000  0.43788000  0.74485000  1.0
  O  O67  1  0.72487000  0.50158000  0.63699000  1.0
  O  O68  1  0.75554000  0.44207000  0.37751000  1.0
  O  O69  1  0.67163000  0.50296000  0.48722000  1.0
  O  O70  1  0.70887000  0.36916000  0.48875000  1.0
  O  O71  1  0.51073000  0.42058000  0.41833000  1.0
  O  O72  1  0.00380000  0.00303000  0.65376000  1.0
  O  O73  1  0.23457000  0.94478000  0.62912000  1.0
  O  O74  1  0.01418000  0.86930000  0.63467000  1.0
  O  O75  1  0.11661000  0.92091000  0.74466000  1.0
  O  O76  1  0.83724000  0.12660000  0.62043000  1.0
  O  O77  1  0.98726000  0.15533000  0.51506000  1.0
  O  O78  1  0.80990000  0.24479000  0.56211000  1.0
  O  O79  1  0.72501000  0.13698000  0.49836000  1.0
  O  O80  1  0.75529000  0.87751000  0.55786000  1.0
  O  O81  1  0.67166000  0.98725000  0.49701000  1.0
  O  O82  1  0.70882000  0.98879000  0.63079000  1.0
  O  O83  1  0.51058000  0.91835000  0.57921000  1.0
  O  O84  1  0.00382000  0.49697000  0.84625000  1.0
  O  O85  1  0.23457000  0.55521000  0.87089000  1.0
  O  O86  1  0.01417000  0.63069000  0.86532000  1.0
  O  O87  1  0.11661000  0.57907000  0.75534000  1.0
  O  O88  1  0.83681000  0.37338000  0.87941000  1.0
  O  O89  1  0.98710000  0.34487000  0.98460000  1.0
  O  O90  1  0.80977000  0.25517000  0.93786000  1.0
  O  O91  1  0.72491000  0.36299000  0.00161000  1.0
  O  O92  1  0.75530000  0.62249000  0.94215000  1.0
  O  O93  1  0.67169000  0.51274000  0.00301000  1.0
  O  O94  1  0.70879000  0.51122000  0.86922000  1.0
  O  O95  1  0.51056000  0.58163000  0.92081000  1.0
  O  O96  1  0.99624000  0.84624000  0.00302000  1.0
  O  O97  1  0.76544000  0.87086000  0.94479000  1.0
  O  O98  1  0.98579000  0.86534000  0.86929000  1.0
  O  O99  1  0.88341000  0.75533000  0.92090000  1.0
  O  O100  1  0.16298000  0.87940000  0.12664000  1.0
  O  O101  1  0.01294000  0.98472000  0.15504000  1.0
  O  O102  1  0.19004000  0.93780000  0.24482000  1.0
  O  O103  1  0.27516000  0.00152000  0.13697000  1.0
  O  O104  1  0.24468000  0.94220000  0.87754000  1.0
  O  O105  1  0.32837000  0.00305000  0.98731000  1.0
  O  O106  1  0.29113000  0.86925000  0.98881000  1.0
  O  O107  1  0.48937000  0.92081000  0.91837000  1.0
  O  O108  1  0.99624000  0.65375000  0.49699000  1.0
  O  O109  1  0.76545000  0.62914000  0.55521000  1.0
  O  O110  1  0.98578000  0.63466000  0.63071000  1.0
  O  O111  1  0.88342000  0.74467000  0.57910000  1.0
  O  O112  1  0.16283000  0.62069000  0.37333000  1.0
  O  O113  1  0.01298000  0.51528000  0.34499000  1.0
  O  O114  1  0.18996000  0.56230000  0.25521000  1.0
  O  O115  1  0.27525000  0.49869000  0.36311000  1.0
  O  O116  1  0.24467000  0.55776000  0.62242000  1.0
  O  O117  1  0.32841000  0.49692000  0.51266000  1.0
  O  O118  1  0.29111000  0.63071000  0.51117000  1.0
  O  O119  1  0.48934000  0.57915000  0.58161000  1.0
  O  O120  1  0.99621000  0.99709000  0.34621000  1.0
  O  O121  1  0.76512000  0.05504000  0.37077000  1.0
  O  O122  1  0.98486000  0.13082000  0.36555000  1.0
  O  O123  1  0.88312000  0.07917000  0.25535000  1.0
  O  O124  1  0.16302000  0.87343000  0.37943000  1.0
  O  O125  1  0.01289000  0.84495000  0.48467000  1.0
  O  O126  1  0.19007000  0.75521000  0.43784000  1.0
  O  O127  1  0.27509000  0.86301000  0.50156000  1.0
  O  O128  1  0.24484000  0.12258000  0.44233000  1.0
  O  O129  1  0.32856000  0.01280000  0.50298000  1.0
  O  O130  1  0.29125000  0.01122000  0.36929000  1.0
  O  O131  1  0.48946000  0.08179000  0.42075000  1.0
  O  O132  1  0.99639000  0.50279000  0.15379000  1.0
  O  O133  1  0.76567000  0.44465000  0.12914000  1.0
  O  O134  1  0.98572000  0.36899000  0.13471000  1.0
  O  O135  1  0.88358000  0.42061000  0.24469000  1.0
  O  O136  1  0.16295000  0.62653000  0.12058000  1.0
  O  O137  1  0.01288000  0.65503000  0.01533000  1.0
  O  O138  1  0.19006000  0.74477000  0.06218000  1.0
  O  O139  1  0.27509000  0.63695000  0.99846000  1.0
  O  O140  1  0.24482000  0.37742000  0.05782000  1.0
  O  O141  1  0.32853000  0.48706000  0.99694000  1.0
  O  O142  1  0.29139000  0.48898000  0.13056000  1.0
  O  O143  1  0.48946000  0.41816000  0.07926000  1.0
