data_image0
_chemical_formula_structural       Cu16H88C192N16O80
_chemical_formula_sum              "Cu16 H88 C192 N16 O80"
_cell_length_a       18.9609
_cell_length_b       18.9609
_cell_length_c       34.7406
_cell_angle_alpha    90
_cell_angle_beta     90
_cell_angle_gamma    90.0002

_space_group_name_H-M_alt    "P 1"
_space_group_IT_number       1

loop_
  _space_group_symop_operation_xyz
  'x, y, z'

loop_
  _atom_site_type_symbol
  _atom_site_label
  _atom_site_symmetry_multiplicity
  _atom_site_fract_x
  _atom_site_fract_y
  _atom_site_fract_z
  _atom_site_occupancy
  Cu  Cu1       1.0  0.73250  0.29250  0.22324  1.0000
  Cu  Cu2       1.0  0.26750  0.70750  0.22324  1.0000
  Cu  Cu3       1.0  0.70750  0.73250  0.22324  1.0000
  Cu  Cu4       1.0  0.29250  0.26750  0.22324  1.0000
  Cu  Cu5       1.0  0.76750  0.79250  0.27676  1.0000
  Cu  Cu6       1.0  0.23250  0.20750  0.27676  1.0000
  Cu  Cu7       1.0  0.79250  0.23250  0.27676  1.0000
  Cu  Cu8       1.0  0.20750  0.76750  0.27676  1.0000
  Cu  Cu9       1.0  0.26750  0.70750  0.77676  1.0000
  Cu  Cu10      1.0  0.73249  0.29251  0.77678  1.0000
  Cu  Cu11      1.0  0.29251  0.26749  0.77678  1.0000
  Cu  Cu12      1.0  0.70750  0.73249  0.77676  1.0000
  Cu  Cu13      1.0  0.23249  0.20750  0.72324  1.0000
  Cu  Cu14      1.0  0.76749  0.79252  0.72322  1.0000
  Cu  Cu15      1.0  0.20750  0.76750  0.72324  1.0000
  Cu  Cu16      1.0  0.79252  0.23249  0.72322  1.0000
  H   H1        1.0  0.01520  0.45173  0.06202  1.0000
  H   H2        1.0  0.96906  0.35933  0.09267  1.0000
  H   H3        1.0  0.90202  0.32039  0.14556  1.0000
  H   H4        1.0  0.01255  0.24349  0.24520  1.0000
  H   H5        1.0  0.12878  0.29649  0.14259  1.0000
  H   H6        1.0  0.98480  0.54827  0.06202  1.0000
  H   H7        1.0  0.03094  0.64067  0.09267  1.0000
  H   H8        1.0  0.09798  0.67961  0.14556  1.0000
  H   H9        1.0  0.98745  0.75651  0.24520  1.0000
  H   H10       1.0  0.87122  0.70351  0.14259  1.0000
  H   H11       1.0  0.54827  0.01520  0.06202  1.0000
  H   H12       1.0  0.64067  0.96906  0.09267  1.0000
  H   H13       1.0  0.67961  0.90202  0.14556  1.0000
  H   H14       1.0  0.75651  0.01255  0.24520  1.0000
  H   H15       1.0  0.70351  0.12879  0.14259  1.0000
  H   H16       1.0  0.45173  0.98480  0.06202  1.0000
  H   H17       1.0  0.35933  0.03094  0.09267  1.0000
  H   H18       1.0  0.32039  0.09798  0.14556  1.0000
  H   H19       1.0  0.24349  0.98745  0.24520  1.0000
  H   H20       1.0  0.29649  0.87121  0.14259  1.0000
  H   H21       1.0  0.48480  0.95173  0.43798  1.0000
  H   H22       1.0  0.53094  0.85933  0.40733  1.0000
  H   H23       1.0  0.59798  0.82039  0.35444  1.0000
  H   H24       1.0  0.48745  0.74349  0.25479  1.0000
  H   H25       1.0  0.37121  0.79649  0.35741  1.0000
  H   H26       1.0  0.51520  0.04827  0.43798  1.0000
  H   H27       1.0  0.46906  0.14067  0.40733  1.0000
  H   H28       1.0  0.40202  0.17961  0.35444  1.0000
  H   H29       1.0  0.51255  0.25651  0.25480  1.0000
  H   H30       1.0  0.62879  0.20351  0.35741  1.0000
  H   H31       1.0  0.95173  0.51520  0.43798  1.0000
  H   H32       1.0  0.85933  0.46906  0.40733  1.0000
  H   H33       1.0  0.82039  0.40202  0.35444  1.0000
  H   H34       1.0  0.74349  0.51255  0.25480  1.0000
  H   H35       1.0  0.79649  0.62878  0.35741  1.0000
  H   H36       1.0  0.04827  0.48480  0.43798  1.0000
  H   H37       1.0  0.14067  0.53094  0.40733  1.0000
  H   H38       1.0  0.17961  0.59798  0.35444  1.0000
  H   H39       1.0  0.25651  0.48745  0.25480  1.0000
  H   H40       1.0  0.20351  0.37122  0.35741  1.0000
  H   H41       1.0  0.98480  0.54827  0.93795  1.0000
  H   H42       1.0  0.03095  0.64067  0.90731  1.0000
  H   H43       1.0  0.09799  0.67961  0.85442  1.0000
  H   H44       1.0  0.98745  0.75652  0.75478  1.0000
  H   H45       1.0  0.87122  0.70351  0.85739  1.0000
  H   H46       1.0  0.01520  0.45173  0.93795  1.0000
  H   H47       1.0  0.96905  0.35933  0.90731  1.0000
  H   H48       1.0  0.90201  0.32039  0.85442  1.0000
  H   H49       1.0  0.01255  0.24348  0.75478  1.0000
  H   H50       1.0  0.12878  0.29649  0.85739  1.0000
  H   H51       1.0  0.45173  0.98480  0.93795  1.0000
  H   H52       1.0  0.35935  0.03095  0.90731  1.0000
  H   H53       1.0  0.32041  0.09798  0.85442  1.0000
  H   H54       1.0  0.24348  0.98745  0.75478  1.0000
  H   H55       1.0  0.29649  0.87122  0.85739  1.0000
  H   H56       1.0  0.54826  0.01521  0.93795  1.0000
  H   H57       1.0  0.64066  0.96906  0.90730  1.0000
  H   H58       1.0  0.67961  0.90203  0.85441  1.0000
  H   H59       1.0  0.75653  0.01253  0.75476  1.0000
  H   H60       1.0  0.70345  0.12880  0.85738  1.0000
  H   H61       1.0  0.51521  0.04826  0.56205  1.0000
  H   H62       1.0  0.46906  0.14066  0.59269  1.0000
  H   H63       1.0  0.40203  0.17961  0.64559  1.0000
  H   H64       1.0  0.51255  0.25648  0.74525  1.0000
  H   H65       1.0  0.62880  0.20345  0.64262  1.0000
  H   H66       1.0  0.48480  0.95173  0.56205  1.0000
  H   H67       1.0  0.53095  0.85935  0.59269  1.0000
  H   H68       1.0  0.59798  0.82041  0.64558  1.0000
  H   H69       1.0  0.48745  0.74347  0.74522  1.0000
  H   H70       1.0  0.37122  0.79649  0.64261  1.0000
  H   H71       1.0  0.04827  0.48480  0.56205  1.0000
  H   H72       1.0  0.14067  0.53095  0.59269  1.0000
  H   H73       1.0  0.17961  0.59799  0.64558  1.0000
  H   H74       1.0  0.25652  0.48745  0.74522  1.0000
  H   H75       1.0  0.20351  0.37122  0.64261  1.0000
  H   H76       1.0  0.95173  0.51520  0.56205  1.0000
  H   H77       1.0  0.85933  0.46905  0.59269  1.0000
  H   H78       1.0  0.82039  0.40201  0.64558  1.0000
  H   H79       1.0  0.74348  0.51255  0.74522  1.0000
  H   H80       1.0  0.79649  0.62878  0.64261  1.0000
  H   H81       1.0  0.08231  0.26766  0.99999  1.0000
  H   H82       1.0  0.91769  0.73234  0.99999  1.0000
  H   H83       1.0  0.73234  0.08231  0.99999  1.0000
  H   H84       1.0  0.26766  0.91769  0.99999  1.0000
  H   H85       1.0  0.41769  0.76766  0.50001  1.0000
  H   H86       1.0  0.58231  0.23234  0.50001  1.0000
  H   H87       1.0  0.76766  0.58231  0.50001  1.0000
  H   H88       1.0  0.23234  0.41769  0.50001  1.0000
  C   C1        1.0  0.02268  0.42546  0.03444  1.0000
  C   C2        1.0  0.04692  0.35574  0.03464  1.0000
  C   C3        1.0  0.06127  0.31811  0.07185  1.0000
  C   C4        1.0  0.01555  0.31019  0.13907  1.0000
  C   C5        1.0  0.95177  0.30591  0.15919  1.0000
  C   C6        1.0  0.95068  0.28183  0.19722  1.0000
  C   C7        1.0  0.01337  0.26264  0.21569  1.0000
  C   C8        1.0  0.07714  0.26950  0.19585  1.0000
  C   C9        1.0  0.07871  0.29250  0.15757  1.0000
  C   C10       1.0  0.88158  0.27570  0.21757  1.0000
  C   C11       1.0  0.14553  0.25531  0.21584  1.0000
  C   C12       1.0  0.97732  0.57454  0.03444  1.0000
  C   C13       1.0  0.95308  0.64426  0.03464  1.0000
  C   C14       1.0  0.93873  0.68189  0.07185  1.0000
  C   C15       1.0  0.98445  0.68981  0.13907  1.0000
  C   C16       1.0  0.04823  0.69409  0.15919  1.0000
  C   C17       1.0  0.04932  0.71817  0.19722  1.0000
  C   C18       1.0  0.98663  0.73736  0.21569  1.0000
  C   C19       1.0  0.92286  0.73050  0.19585  1.0000
  C   C20       1.0  0.92129  0.70750  0.15757  1.0000
  C   C21       1.0  0.11842  0.72430  0.21757  1.0000
  C   C22       1.0  0.85447  0.74469  0.21584  1.0000
  C   C23       1.0  0.57454  0.02268  0.03444  1.0000
  C   C24       1.0  0.64426  0.04693  0.03464  1.0000
  C   C25       1.0  0.68189  0.06127  0.07185  1.0000
  C   C26       1.0  0.68981  0.01555  0.13907  1.0000
  C   C27       1.0  0.69409  0.95177  0.15919  1.0000
  C   C28       1.0  0.71817  0.95069  0.19722  1.0000
  C   C29       1.0  0.73736  0.01337  0.21569  1.0000
  C   C30       1.0  0.73050  0.07715  0.19585  1.0000
  C   C31       1.0  0.70750  0.07871  0.15757  1.0000
  C   C32       1.0  0.72430  0.88158  0.21757  1.0000
  C   C33       1.0  0.74469  0.14553  0.21584  1.0000
  C   C34       1.0  0.42546  0.97732  0.03444  1.0000
  C   C35       1.0  0.35574  0.95307  0.03464  1.0000
  C   C36       1.0  0.31811  0.93873  0.07185  1.0000
  C   C37       1.0  0.31019  0.98445  0.13907  1.0000
  C   C38       1.0  0.30591  0.04823  0.15919  1.0000
  C   C39       1.0  0.28183  0.04931  0.19722  1.0000
  C   C40       1.0  0.26264  0.98663  0.21569  1.0000
  C   C41       1.0  0.26950  0.92285  0.19585  1.0000
  C   C42       1.0  0.29250  0.92129  0.15757  1.0000
  C   C43       1.0  0.27570  0.11842  0.21757  1.0000
  C   C44       1.0  0.25531  0.85447  0.21584  1.0000
  C   C45       1.0  0.47732  0.92546  0.46556  1.0000
  C   C46       1.0  0.45307  0.85574  0.46536  1.0000
  C   C47       1.0  0.43873  0.81811  0.42815  1.0000
  C   C48       1.0  0.48445  0.81019  0.36093  1.0000
  C   C49       1.0  0.54823  0.80591  0.34081  1.0000
  C   C50       1.0  0.54931  0.78183  0.30278  1.0000
  C   C51       1.0  0.48663  0.76264  0.28431  1.0000
  C   C52       1.0  0.42286  0.76950  0.30415  1.0000
  C   C53       1.0  0.42129  0.79250  0.34243  1.0000
  C   C54       1.0  0.61842  0.77570  0.28243  1.0000
  C   C55       1.0  0.35447  0.75531  0.28416  1.0000
  C   C56       1.0  0.52268  0.07454  0.46556  1.0000
  C   C57       1.0  0.54693  0.14426  0.46536  1.0000
  C   C58       1.0  0.56127  0.18189  0.42815  1.0000
  C   C59       1.0  0.51555  0.18981  0.36093  1.0000
  C   C60       1.0  0.45177  0.19409  0.34081  1.0000
  C   C61       1.0  0.45069  0.21817  0.30278  1.0000
  C   C62       1.0  0.51337  0.23736  0.28431  1.0000
  C   C63       1.0  0.57715  0.23050  0.30415  1.0000
  C   C64       1.0  0.57871  0.20750  0.34243  1.0000
  C   C65       1.0  0.38158  0.22430  0.28243  1.0000
  C   C66       1.0  0.64553  0.24469  0.28416  1.0000
  C   C67       1.0  0.92546  0.52268  0.46556  1.0000
  C   C68       1.0  0.85574  0.54692  0.46536  1.0000
  C   C69       1.0  0.81811  0.56127  0.42815  1.0000
  C   C70       1.0  0.81019  0.51555  0.36093  1.0000
  C   C71       1.0  0.80591  0.45177  0.34081  1.0000
  C   C72       1.0  0.78183  0.45068  0.30278  1.0000
  C   C73       1.0  0.76264  0.51337  0.28431  1.0000
  C   C74       1.0  0.76950  0.57714  0.30415  1.0000
  C   C75       1.0  0.79250  0.57871  0.34243  1.0000
  C   C76       1.0  0.77570  0.38158  0.28243  1.0000
  C   C77       1.0  0.75531  0.64553  0.28416  1.0000
  C   C78       1.0  0.07454  0.47732  0.46556  1.0000
  C   C79       1.0  0.14426  0.45308  0.46536  1.0000
  C   C80       1.0  0.18189  0.43873  0.42815  1.0000
  C   C81       1.0  0.18981  0.48445  0.36093  1.0000
  C   C82       1.0  0.19409  0.54823  0.34081  1.0000
  C   C83       1.0  0.21817  0.54932  0.30278  1.0000
  C   C84       1.0  0.23736  0.48663  0.28431  1.0000
  C   C85       1.0  0.23050  0.42286  0.30415  1.0000
  C   C86       1.0  0.20750  0.42129  0.34243  1.0000
  C   C87       1.0  0.22430  0.61842  0.28243  1.0000
  C   C88       1.0  0.24469  0.35447  0.28416  1.0000
  C   C89       1.0  0.97731  0.57453  0.96554  1.0000
  C   C90       1.0  0.95307  0.64426  0.96533  1.0000
  C   C91       1.0  0.93873  0.68188  0.92812  1.0000
  C   C92       1.0  0.98445  0.68981  0.86091  1.0000
  C   C93       1.0  0.04823  0.69409  0.84079  1.0000
  C   C94       1.0  0.04932  0.71817  0.80276  1.0000
  C   C95       1.0  0.98663  0.73736  0.78429  1.0000
  C   C96       1.0  0.92286  0.73050  0.80414  1.0000
  C   C97       1.0  0.92129  0.70750  0.84241  1.0000
  C   C98       1.0  0.11842  0.72431  0.78241  1.0000
  C   C99       1.0  0.85448  0.74470  0.78415  1.0000
  C   C100      1.0  0.02268  0.42547  0.96554  1.0000
  C   C101      1.0  0.04693  0.35574  0.96533  1.0000
  C   C102      1.0  0.06127  0.31812  0.92812  1.0000
  C   C103      1.0  0.01555  0.31020  0.86091  1.0000
  C   C104      1.0  0.95177  0.30591  0.84079  1.0000
  C   C105      1.0  0.95068  0.28182  0.80276  1.0000
  C   C106      1.0  0.01337  0.26263  0.78429  1.0000
  C   C107      1.0  0.07714  0.26950  0.80414  1.0000
  C   C108      1.0  0.07870  0.29250  0.84241  1.0000
  C   C109      1.0  0.88158  0.27569  0.78241  1.0000
  C   C110      1.0  0.14552  0.25530  0.78415  1.0000
  C   C111      1.0  0.42547  0.97731  0.96554  1.0000
  C   C112      1.0  0.35574  0.95307  0.96533  1.0000
  C   C113      1.0  0.31812  0.93873  0.92812  1.0000
  C   C114      1.0  0.31019  0.98445  0.86091  1.0000
  C   C115      1.0  0.30591  0.04823  0.84079  1.0000
  C   C116      1.0  0.28184  0.04932  0.80276  1.0000
  C   C117      1.0  0.26264  0.98663  0.78429  1.0000
  C   C118      1.0  0.26950  0.92286  0.80414  1.0000
  C   C119      1.0  0.29250  0.92129  0.84241  1.0000
  C   C120      1.0  0.27570  0.11842  0.78241  1.0000
  C   C121      1.0  0.25530  0.85448  0.78415  1.0000
  C   C122      1.0  0.57453  0.02268  0.96553  1.0000
  C   C123      1.0  0.64426  0.04693  0.96533  1.0000
  C   C124      1.0  0.68187  0.06129  0.92812  1.0000
  C   C125      1.0  0.68980  0.01557  0.86092  1.0000
  C   C126      1.0  0.69405  0.95179  0.84077  1.0000
  C   C127      1.0  0.71811  0.95069  0.80275  1.0000
  C   C128      1.0  0.73747  0.01338  0.78429  1.0000
  C   C129      1.0  0.73070  0.07713  0.80420  1.0000
  C   C130      1.0  0.70757  0.07871  0.84244  1.0000
  C   C131      1.0  0.72430  0.88157  0.78240  1.0000
  C   C132      1.0  0.74486  0.14556  0.78422  1.0000
  C   C133      1.0  0.52268  0.07453  0.53447  1.0000
  C   C134      1.0  0.54693  0.14426  0.53467  1.0000
  C   C135      1.0  0.56129  0.18187  0.57188  1.0000
  C   C136      1.0  0.51557  0.18979  0.63908  1.0000
  C   C137      1.0  0.45179  0.19406  0.65922  1.0000
  C   C138      1.0  0.45069  0.21813  0.69725  1.0000
  C   C139      1.0  0.51337  0.23739  0.71573  1.0000
  C   C140      1.0  0.57713  0.23058  0.69583  1.0000
  C   C141      1.0  0.57871  0.20752  0.65757  1.0000
  C   C142      1.0  0.38157  0.22430  0.71760  1.0000
  C   C143      1.0  0.64554  0.24485  0.71581  1.0000
  C   C144      1.0  0.47731  0.92547  0.53446  1.0000
  C   C145      1.0  0.45307  0.85574  0.53467  1.0000
  C   C146      1.0  0.43873  0.81812  0.57188  1.0000
  C   C147      1.0  0.48445  0.81019  0.63909  1.0000
  C   C148      1.0  0.54824  0.80591  0.65921  1.0000
  C   C149      1.0  0.54932  0.78184  0.69724  1.0000
  C   C150      1.0  0.48663  0.76264  0.71571  1.0000
  C   C151      1.0  0.42286  0.76950  0.69586  1.0000
  C   C152      1.0  0.42129  0.79250  0.65759  1.0000
  C   C153      1.0  0.61842  0.77570  0.71759  1.0000
  C   C154      1.0  0.35448  0.75530  0.71585  1.0000
  C   C155      1.0  0.07453  0.47731  0.53446  1.0000
  C   C156      1.0  0.14426  0.45307  0.53467  1.0000
  C   C157      1.0  0.18188  0.43873  0.57188  1.0000
  C   C158      1.0  0.18981  0.48445  0.63909  1.0000
  C   C159      1.0  0.19409  0.54823  0.65921  1.0000
  C   C160      1.0  0.21817  0.54932  0.69724  1.0000
  C   C161      1.0  0.23736  0.48663  0.71571  1.0000
  C   C162      1.0  0.23050  0.42286  0.69586  1.0000
  C   C163      1.0  0.20750  0.42129  0.65759  1.0000
  C   C164      1.0  0.22431  0.61842  0.71759  1.0000
  C   C165      1.0  0.24470  0.35448  0.71585  1.0000
  C   C166      1.0  0.92547  0.52268  0.53446  1.0000
  C   C167      1.0  0.85574  0.54693  0.53467  1.0000
  C   C168      1.0  0.81812  0.56127  0.57188  1.0000
  C   C169      1.0  0.81020  0.51555  0.63909  1.0000
  C   C170      1.0  0.80591  0.45177  0.65921  1.0000
  C   C171      1.0  0.78182  0.45068  0.69724  1.0000
  C   C172      1.0  0.76263  0.51337  0.71571  1.0000
  C   C173      1.0  0.76950  0.57714  0.69586  1.0000
  C   C174      1.0  0.79250  0.57870  0.65759  1.0000
  C   C175      1.0  0.77569  0.38158  0.71759  1.0000
  C   C176      1.0  0.75530  0.64552  0.71585  1.0000
  C   C177      1.0  0.01131  0.46250  0.99999  1.0000
  C   C178      1.0  0.06101  0.32106  0.99999  1.0000
  C   C179      1.0  0.98869  0.53750  0.99999  1.0000
  C   C180      1.0  0.93899  0.67894  0.99999  1.0000
  C   C181      1.0  0.53750  0.01131  0.99999  1.0000
  C   C182      1.0  0.67894  0.06102  0.99999  1.0000
  C   C183      1.0  0.46250  0.98869  0.99999  1.0000
  C   C184      1.0  0.32106  0.93899  0.99999  1.0000
  C   C185      1.0  0.48869  0.96250  0.50001  1.0000
  C   C186      1.0  0.43899  0.82106  0.50001  1.0000
  C   C187      1.0  0.51131  0.03750  0.50001  1.0000
  C   C188      1.0  0.56102  0.17894  0.50001  1.0000
  C   C189      1.0  0.96251  0.51131  0.50001  1.0000
  C   C190      1.0  0.82106  0.56101  0.50001  1.0000
  C   C191      1.0  0.03750  0.48869  0.50001  1.0000
  C   C192      1.0  0.17894  0.43899  0.50001  1.0000
  N   N1        1.0  0.01423  0.33489  0.10091  1.0000
  N   N2        1.0  0.98577  0.66511  0.10091  1.0000
  N   N3        1.0  0.66511  0.01424  0.10091  1.0000
  N   N4        1.0  0.33489  0.98576  0.10091  1.0000
  N   N5        1.0  0.48576  0.83489  0.39909  1.0000
  N   N6        1.0  0.51424  0.16511  0.39909  1.0000
  N   N7        1.0  0.83489  0.51423  0.39909  1.0000
  N   N8        1.0  0.16511  0.48577  0.39909  1.0000
  N   N9        1.0  0.98577  0.66510  0.89907  1.0000
  N   N10       1.0  0.01423  0.33490  0.89907  1.0000
  N   N11       1.0  0.33489  0.98577  0.89907  1.0000
  N   N12       1.0  0.66512  0.01423  0.89906  1.0000
  N   N13       1.0  0.51423  0.16511  0.60093  1.0000
  N   N14       1.0  0.48577  0.83489  0.60093  1.0000
  N   N15       1.0  0.16510  0.48577  0.60093  1.0000
  N   N16       1.0  0.83490  0.51423  0.60093  1.0000
  O   O1        1.0  0.11088  0.27687  0.07571  1.0000
  O   O2        1.0  0.82726  0.29868  0.19968  1.0000
  O   O3        1.0  0.88252  0.24752  0.25100  1.0000
  O   O4        1.0  0.20061  0.28036  0.19948  1.0000
  O   O5        1.0  0.14353  0.22109  0.24748  1.0000
  O   O6        1.0  0.88912  0.72313  0.07571  1.0000
  O   O7        1.0  0.17273  0.70131  0.19968  1.0000
  O   O8        1.0  0.11748  0.75248  0.25100  1.0000
  O   O9        1.0  0.79939  0.71964  0.19947  1.0000
  O   O10       1.0  0.85647  0.77891  0.24748  1.0000
  O   O11       1.0  0.72313  0.11088  0.07571  1.0000
  O   O12       1.0  0.70132  0.82727  0.19968  1.0000
  O   O13       1.0  0.75248  0.88252  0.25100  1.0000
  O   O14       1.0  0.71964  0.20061  0.19947  1.0000
  O   O15       1.0  0.77891  0.14353  0.24748  1.0000
  O   O16       1.0  0.27687  0.88912  0.07571  1.0000
  O   O17       1.0  0.29868  0.17273  0.19968  1.0000
  O   O18       1.0  0.24752  0.11748  0.25100  1.0000
  O   O19       1.0  0.28036  0.79939  0.19947  1.0000
  O   O20       1.0  0.22109  0.85647  0.24748  1.0000
  O   O21       1.0  0.38912  0.77687  0.42429  1.0000
  O   O22       1.0  0.67273  0.79868  0.30032  1.0000
  O   O23       1.0  0.61748  0.74752  0.24900  1.0000
  O   O24       1.0  0.29939  0.78036  0.30053  1.0000
  O   O25       1.0  0.35647  0.72109  0.25252  1.0000
  O   O26       1.0  0.61088  0.22314  0.42429  1.0000
  O   O27       1.0  0.32727  0.20132  0.30032  1.0000
  O   O28       1.0  0.38252  0.25248  0.24900  1.0000
  O   O29       1.0  0.70061  0.21964  0.30053  1.0000
  O   O30       1.0  0.64353  0.27891  0.25252  1.0000
  O   O31       1.0  0.77687  0.61088  0.42429  1.0000
  O   O32       1.0  0.79869  0.32727  0.30032  1.0000
  O   O33       1.0  0.74752  0.38252  0.24900  1.0000
  O   O34       1.0  0.78036  0.70061  0.30053  1.0000
  O   O35       1.0  0.72109  0.64353  0.25252  1.0000
  O   O36       1.0  0.22313  0.38912  0.42429  1.0000
  O   O37       1.0  0.20132  0.67274  0.30032  1.0000
  O   O38       1.0  0.25248  0.61748  0.24900  1.0000
  O   O39       1.0  0.21964  0.29939  0.30052  1.0000
  O   O40       1.0  0.27891  0.35647  0.25252  1.0000
  O   O41       1.0  0.88912  0.72312  0.92426  1.0000
  O   O42       1.0  0.17273  0.70133  0.80031  1.0000
  O   O43       1.0  0.11748  0.75249  0.74899  1.0000
  O   O44       1.0  0.79940  0.71965  0.80051  1.0000
  O   O45       1.0  0.85647  0.77892  0.75251  1.0000
  O   O46       1.0  0.11088  0.27688  0.92426  1.0000
  O   O47       1.0  0.82727  0.29866  0.80031  1.0000
  O   O48       1.0  0.88251  0.24751  0.74899  1.0000
  O   O49       1.0  0.20059  0.28035  0.80051  1.0000
  O   O50       1.0  0.14352  0.22108  0.75251  1.0000
  O   O51       1.0  0.27688  0.88911  0.92426  1.0000
  O   O52       1.0  0.29864  0.17274  0.80031  1.0000
  O   O53       1.0  0.24752  0.11747  0.74898  1.0000
  O   O54       1.0  0.28036  0.79940  0.80051  1.0000
  O   O55       1.0  0.22108  0.85647  0.75251  1.0000
  O   O56       1.0  0.72313  0.11087  0.92425  1.0000
  O   O57       1.0  0.70131  0.82728  0.80032  1.0000
  O   O58       1.0  0.75251  0.88254  0.74900  1.0000
  O   O59       1.0  0.71968  0.20061  0.80053  1.0000
  O   O60       1.0  0.77886  0.14349  0.75250  1.0000
  O   O61       1.0  0.61087  0.22313  0.57575  1.0000
  O   O62       1.0  0.32728  0.20131  0.69968  1.0000
  O   O63       1.0  0.38253  0.25251  0.75100  1.0000
  O   O64       1.0  0.70059  0.21964  0.69949  1.0000
  O   O65       1.0  0.64351  0.27892  0.74750  1.0000
  O   O66       1.0  0.38911  0.77688  0.57574  1.0000
  O   O67       1.0  0.67274  0.79864  0.69969  1.0000
  O   O68       1.0  0.61747  0.74752  0.75102  1.0000
  O   O69       1.0  0.29940  0.78036  0.69949  1.0000
  O   O70       1.0  0.35647  0.72108  0.74749  1.0000
  O   O71       1.0  0.22312  0.38912  0.57574  1.0000
  O   O72       1.0  0.20133  0.67273  0.69969  1.0000
  O   O73       1.0  0.25249  0.61748  0.75101  1.0000
  O   O74       1.0  0.21965  0.29940  0.69949  1.0000
  O   O75       1.0  0.27892  0.35647  0.74749  1.0000
  O   O76       1.0  0.77688  0.61088  0.57574  1.0000
  O   O77       1.0  0.79866  0.32727  0.69969  1.0000
  O   O78       1.0  0.74751  0.38251  0.75101  1.0000
  O   O79       1.0  0.78035  0.70059  0.69949  1.0000
  O   O80       1.0  0.72108  0.64352  0.74749  1.0000
