# generated using pymatgen
data_Ga9P9O37F4
_symmetry_space_group_name_H-M   'P 1'
_cell_length_a   10.16840000
_cell_length_b   17.70020000
_cell_length_c   32.70610000
_cell_angle_alpha   90.00000000
_cell_angle_beta   90.00000000
_cell_angle_gamma   90.00000000
_symmetry_Int_Tables_number   1
_chemical_formula_structural   Ga9P9O37F4
_chemical_formula_sum   'Ga36 P36 O148 F16'
_cell_volume   5886.53263189
_cell_formula_units_Z   4
loop_
 _symmetry_equiv_pos_site_id
 _symmetry_equiv_pos_as_xyz
  1  'x, y, z'
loop_
 _atom_site_type_symbol
 _atom_site_label
 _atom_site_symmetry_multiplicity
 _atom_site_fract_x
 _atom_site_fract_y
 _atom_site_fract_z
 _atom_site_occupancy
  Ga  Ga0  1  0.05643000  0.43059000  0.92287000  1.0
  Ga  Ga1  1  0.02197000  0.48410000  0.02595000  1.0
  Ga  Ga2  1  0.88183000  0.15815000  0.98867000  1.0
  Ga  Ga3  1  0.58670000  0.34659000  0.50676000  1.0
  Ga  Ga4  1  0.42319000  0.08393000  0.57961000  1.0
  Ga  Ga5  1  0.45525000  0.02252000  0.47611000  1.0
  Ga  Ga6  1  0.58927000  0.34114000  0.66620000  1.0
  Ga  Ga7  1  0.88792000  0.17185000  0.82627000  1.0
  Ga  Ga8  1  0.92147000  0.30408000  0.75647000  1.0
  Ga  Ga9  1  0.55502000  0.57037000  0.07744000  1.0
  Ga  Ga10  1  0.52138000  0.51611000  0.97446000  1.0
  Ga  Ga11  1  0.38288000  0.84196000  0.01129000  1.0
  Ga  Ga12  1  0.08664000  0.65341000  0.49313000  1.0
  Ga  Ga13  1  0.92329000  0.91594000  0.42029000  1.0
  Ga  Ga14  1  0.95523000  0.97747000  0.52383000  1.0
  Ga  Ga15  1  0.08974000  0.65877000  0.33342000  1.0
  Ga  Ga16  1  0.38821000  0.82830000  0.17378000  1.0
  Ga  Ga17  1  0.42307000  0.69648000  0.24360000  1.0
  Ga  Ga18  1  0.05544000  0.92996000  0.07736000  1.0
  Ga  Ga19  1  0.02212000  0.98407000  0.97427000  1.0
  Ga  Ga20  1  0.88314000  0.65807000  0.01135000  1.0
  Ga  Ga21  1  0.58664000  0.84658000  0.49311000  1.0
  Ga  Ga22  1  0.42331000  0.58408000  0.42027000  1.0
  Ga  Ga23  1  0.45523000  0.52254000  0.52381000  1.0
  Ga  Ga24  1  0.58976000  0.84123000  0.33342000  1.0
  Ga  Ga25  1  0.88815000  0.67187000  0.17378000  1.0
  Ga  Ga26  1  0.92309000  0.80356000  0.24360000  1.0
  Ga  Ga27  1  0.55490000  0.07041000  0.92272000  1.0
  Ga  Ga28  1  0.52223000  0.01582000  0.02574000  1.0
  Ga  Ga29  1  0.38206000  0.34172000  0.98885000  1.0
  Ga  Ga30  1  0.08665000  0.15340000  0.50686000  1.0
  Ga  Ga31  1  0.92325000  0.41599000  0.57969000  1.0
  Ga  Ga32  1  0.95522000  0.47749000  0.47615000  1.0
  Ga  Ga33  1  0.08951000  0.15876000  0.66666667  1.0
  Ga  Ga34  1  0.38620000  0.32817000  0.82575000  1.0
  Ga  Ga35  1  0.42252000  0.19617000  0.75627000  1.0
  P  P36  1  0.05803000  0.31337000  0.99434000  1.0
  P  P37  1  0.82822000  0.52467000  0.95466000  1.0
  P  P38  1  0.84888000  0.06651000  0.90510000  1.0
  P  P39  1  0.64882000  0.98376000  0.54782000  1.0
  P  P40  1  0.40645000  0.19351000  0.50343000  1.0
  P  P41  1  0.62901000  0.43845000  0.59028000  1.0
  P  P42  1  0.60991000  0.34400000  0.75646000  1.0
  P  P43  1  0.05928000  0.32414000  0.83918000  1.0
  P  P44  1  0.89815000  0.30802000  0.66116000  1.0
  P  P45  1  0.55914000  0.68688000  0.00560000  1.0
  P  P46  1  0.32815000  0.47548000  0.04576000  1.0
  P  P47  1  0.34958000  0.93349000  0.09497000  1.0
  P  P48  1  0.14882000  0.01619000  0.45214000  1.0
  P  P49  1  0.90645000  0.80646000  0.49652000  1.0
  P  P50  1  0.12895000  0.56162000  0.40957000  1.0
  P  P51  1  0.11197000  0.65635000  0.24318000  1.0
  P  P52  1  0.56051000  0.67615000  0.16085000  1.0
  P  P53  1  0.39813000  0.69209000  0.33884000  1.0
  P  P54  1  0.05928000  0.81321000  0.00562000  1.0
  P  P55  1  0.82869000  0.02477000  0.04560000  1.0
  P  P56  1  0.84935000  0.56658000  0.09505000  1.0
  P  P57  1  0.64886000  0.48383000  0.45210000  1.0
  P  P58  1  0.40640000  0.69355000  0.49651000  1.0
  P  P59  1  0.62898000  0.93839000  0.40956000  1.0
  P  P60  1  0.61195000  0.84372000  0.24318000  1.0
  P  P61  1  0.06056000  0.82395000  0.16081000  1.0
  P  P62  1  0.89816000  0.80794000  0.33884000  1.0
  P  P63  1  0.55712000  0.18650000  0.99472000  1.0
  P  P64  1  0.32876000  0.97498000  0.95435000  1.0
  P  P65  1  0.34924000  0.43347000  0.90507000  1.0
  P  P66  1  0.14887000  0.51619000  0.54784000  1.0
  P  P67  1  0.90646000  0.30646000  0.50345000  1.0
  P  P68  1  0.12887000  0.06160000  0.59043000  1.0
  P  P69  1  0.11105000  0.15658000  0.75695000  1.0
  P  P70  1  0.55953000  0.17591000  0.83898000  1.0
  P  P71  1  0.39794000  0.19176000  0.66107000  1.0
  O  O72  1  0.63882000  0.36930000  0.56124000  1.0
  O  O73  1  0.83366000  0.13538000  0.93385000  1.0
  O  O74  1  0.45118000  0.13323000  0.47188000  1.0
  O  O75  1  0.75240000  0.35030000  0.77223000  1.0
  O  O76  1  0.62007000  0.02578000  0.50758000  1.0
  O  O77  1  0.83963000  0.20934000  0.77214000  1.0
  O  O78  1  0.02004000  0.37244000  0.02727000  1.0
  O  O79  1  0.85946000  0.48241000  0.99468000  1.0
  O  O80  1  0.58022000  0.26051000  0.74525000  1.0
  O  O81  1  0.98186000  0.25240000  0.85096000  1.0
  O  O82  1  0.47540000  0.26725000  0.49188000  1.0
  O  O83  1  0.92025000  0.34503000  0.70353000  1.0
  O  O84  1  0.98193000  0.24142000  0.00420000  1.0
  O  O85  1  0.93177000  0.00114000  0.92187000  1.0
  O  O86  1  0.02209000  0.35517000  0.79645000  1.0
  O  O87  1  0.56275000  0.50873000  0.57242000  1.0
  O  O88  1  0.90872000  0.49419000  0.91819000  1.0
  O  O89  1  0.57395000  0.02066000  0.58375000  1.0
  O  O90  1  0.85926000  0.61031000  0.95927000  1.0
  O  O91  1  0.02262000  0.33849000  0.95034000  1.0
  O  O92  1  0.44401000  0.17320000  0.54790000  1.0
  O  O93  1  0.60927000  0.89885000  0.54430000  1.0
  O  O94  1  0.74928000  0.29692000  0.65271000  1.0
  O  O95  1  0.68271000  0.51714000  0.94311000  1.0
  O  O96  1  0.20677000  0.29712000  0.99885000  1.0
  O  O97  1  0.25662000  0.20409000  0.49766000  1.0
  O  O98  1  0.20712000  0.30596000  0.84210000  1.0
  O  O99  1  0.77088000  0.45944000  0.60410000  1.0
  O  O100  1  0.79664000  0.98309000  0.55794000  1.0
  O  O101  1  0.54922000  0.41696000  0.62880000  1.0
  O  O102  1  0.71005000  0.03144000  0.89719000  1.0
  O  O103  1  0.90607000  0.09016000  0.86348000  1.0
  O  O104  1  0.02345000  0.38689000  0.86952000  1.0
  O  O105  1  0.96217000  0.35971000  0.62936000  1.0
  O  O106  1  0.51811000  0.37646000  0.78989000  1.0
  O  O107  1  0.95502000  0.22762000  0.65917000  1.0
  O  O108  1  0.59096000  0.39109000  0.71673000  1.0
  O  O109  1  0.13845000  0.63080000  0.43859000  1.0
  O  O110  1  0.33478000  0.86463000  0.06617000  1.0
  O  O111  1  0.95121000  0.86677000  0.52806000  1.0
  O  O112  1  0.25425000  0.65035000  0.22706000  1.0
  O  O113  1  0.12012000  0.97419000  0.49239000  1.0
  O  O114  1  0.34040000  0.79109000  0.22794000  1.0
  O  O115  1  0.52061000  0.62792000  0.97264000  1.0
  O  O116  1  0.35879000  0.51828000  0.00588000  1.0
  O  O117  1  0.08150000  0.73962000  0.25472000  1.0
  O  O118  1  0.48499000  0.74868000  0.14943000  1.0
  O  O119  1  0.97540000  0.73273000  0.50809000  1.0
  O  O120  1  0.42014000  0.65515000  0.29645000  1.0
  O  O121  1  0.48383000  0.75906000  0.99570000  1.0
  O  O122  1  0.43222000  0.99891000  0.07817000  1.0
  O  O123  1  0.52464000  0.64543000  0.20379000  1.0
  O  O124  1  0.06253000  0.49140000  0.42745000  1.0
  O  O125  1  0.40883000  0.50551000  0.08228000  1.0
  O  O126  1  0.07401000  0.97927000  0.41620000  1.0
  O  O127  1  0.35840000  0.38972000  0.04098000  1.0
  O  O128  1  0.52348000  0.66225000  0.04962000  1.0
  O  O129  1  0.94402000  0.82674000  0.45206000  1.0
  O  O130  1  0.10921000  0.10110000  0.45567000  1.0
  O  O131  1  0.24929000  0.70310000  0.34730000  1.0
  O  O132  1  0.18258000  0.48190000  0.05759000  1.0
  O  O133  1  0.70804000  0.70271000  0.00112000  1.0
  O  O134  1  0.75663000  0.79589000  0.50230000  1.0
  O  O135  1  0.70856000  0.69299000  0.15733000  1.0
  O  O136  1  0.27094000  0.54054000  0.39589000  1.0
  O  O137  1  0.29663000  0.01692000  0.44200000  1.0
  O  O138  1  0.04979000  0.58300000  0.37090000  1.0
  O  O139  1  0.21083000  0.96869000  0.10281000  1.0
  O  O140  1  0.40655000  0.90998000  0.13662000  1.0
  O  O141  1  0.52021000  0.61388000  0.13072000  1.0
  O  O142  1  0.46216000  0.64035000  0.37061000  1.0
  O  O143  1  0.02083000  0.62400000  0.20954000  1.0
  O  O144  1  0.45509000  0.77248000  0.34088000  1.0
  O  O145  1  0.09347000  0.60895000  0.28284000  1.0
  O  O146  1  0.63850000  0.86921000  0.43858000  1.0
  O  O147  1  0.83488000  0.63547000  0.06626000  1.0
  O  O148  1  0.45116000  0.63325000  0.52804000  1.0
  O  O149  1  0.75423000  0.84968000  0.22707000  1.0
  O  O150  1  0.62010000  0.52585000  0.49234000  1.0
  O  O151  1  0.84042000  0.70899000  0.22793000  1.0
  O  O152  1  0.02073000  0.87235000  0.97278000  1.0
  O  O153  1  0.85957000  0.98231000  0.00562000  1.0
  O  O154  1  0.58146000  0.76046000  0.25473000  1.0
  O  O155  1  0.98501000  0.75143000  0.14937000  1.0
  O  O156  1  0.47539000  0.76727000  0.50808000  1.0
  O  O157  1  0.92017000  0.84486000  0.29644000  1.0
  O  O158  1  0.98348000  0.74119000  0.99564000  1.0
  O  O159  1  0.93188000  0.50101000  0.07834000  1.0
  O  O160  1  0.02451000  0.85465000  0.20374000  1.0
  O  O161  1  0.56256000  0.00861000  0.42743000  1.0
  O  O162  1  0.90892000  0.99443000  0.08214000  1.0
  O  O163  1  0.57408000  0.52079000  0.41616000  1.0
  O  O164  1  0.85990000  0.11043000  0.04089000  1.0
  O  O165  1  0.02387000  0.83796000  0.04964000  1.0
  O  O166  1  0.44394000  0.67328000  0.45204000  1.0
  O  O167  1  0.60918000  0.39893000  0.45560000  1.0
  O  O168  1  0.74932000  0.79690000  0.34730000  1.0
  O  O169  1  0.68309000  0.01811000  0.05723000  1.0
  O  O170  1  0.20807000  0.79723000  0.00104000  1.0
  O  O171  1  0.25658000  0.70412000  0.50230000  1.0
  O  O172  1  0.20863000  0.80705000  0.15737000  1.0
  O  O173  1  0.77098000  0.95948000  0.39588000  1.0
  O  O174  1  0.79669000  0.48312000  0.44200000  1.0
  O  O175  1  0.54982000  0.91700000  0.37090000  1.0
  O  O176  1  0.71045000  0.53158000  0.10289000  1.0
  O  O177  1  0.90626000  0.59001000  0.13674000  1.0
  O  O178  1  0.02064000  0.88625000  0.13064000  1.0
  O  O179  1  0.96216000  0.85968000  0.37061000  1.0
  O  O180  1  0.52077000  0.87609000  0.20956000  1.0
  O  O181  1  0.95513000  0.72755000  0.34089000  1.0
  O  O182  1  0.59352000  0.89111000  0.28285000  1.0
  O  O183  1  0.13839000  0.13077000  0.56141000  1.0
  O  O184  1  0.33333333  0.36486000  0.93401000  1.0
  O  O185  1  0.95124000  0.36679000  0.47193000  1.0
  O  O186  1  0.25355000  0.15043000  0.77288000  1.0
  O  O187  1  0.12012000  0.47419000  0.50759000  1.0
  O  O188  1  0.33906000  0.29075000  0.77159000  1.0
  O  O189  1  0.51858000  0.12760000  0.02776000  1.0
  O  O190  1  0.35953000  0.01726000  0.99438000  1.0
  O  O191  1  0.08037000  0.23993000  0.74567000  1.0
  O  O192  1  0.48481000  0.24902000  0.85001000  1.0
  O  O193  1  0.97548000  0.23275000  0.49191000  1.0
  O  O194  1  0.41987000  0.15479000  0.70345000  1.0
  O  O195  1  0.48239000  0.25878000  0.00476000  1.0
  O  O196  1  0.43293000  0.49850000  0.92183000  1.0
  O  O197  1  0.52319000  0.14485000  0.79620000  1.0
  O  O198  1  0.06240000  0.99139000  0.57256000  1.0
  O  O199  1  0.40898000  0.00537000  0.91783000  1.0
  O  O200  1  0.07409000  0.47925000  0.58378000  1.0
  O  O201  1  0.35999000  0.88932000  0.95902000  1.0
  O  O202  1  0.52064000  0.16143000  0.95090000  1.0
  O  O203  1  0.94387000  0.32676000  0.54793000  1.0
  O  O204  1  0.10925000  0.60110000  0.54432000  1.0
  O  O205  1  0.24910000  0.20291000  0.65263000  1.0
  O  O206  1  0.18305000  0.98165000  0.94277000  1.0
  O  O207  1  0.70616000  0.20119000  0.99946000  1.0
  O  O208  1  0.75667000  0.29586000  0.49760000  1.0
  O  O209  1  0.70777000  0.19274000  0.84238000  1.0
  O  O210  1  0.27087000  0.04040000  0.60406000  1.0
  O  O211  1  0.29670000  0.51691000  0.55794000  1.0
  O  O212  1  0.04986000  0.08297000  0.62912000  1.0
  O  O213  1  0.21113000  0.46941000  0.89718000  1.0
  O  O214  1  0.40577000  0.40903000  0.86353000  1.0
  O  O215  1  0.51959000  0.11446000  0.86961000  1.0
  O  O216  1  0.46198000  0.13998000  0.62932000  1.0
  O  O217  1  0.02045000  0.12400000  0.79067000  1.0
  O  O218  1  0.45496000  0.27211000  0.65893000  1.0
  O  O219  1  0.09222000  0.10925000  0.71727000  1.0
  F  F220  1  0.03888000  0.59454000  0.01931000  1.0
  F  F221  1  0.36063000  0.03282000  0.52842000  1.0
  F  F222  1  0.12043000  0.47617000  0.97356000  1.0
  F  F223  1  0.43540000  0.41305000  0.51613000  1.0
  F  F224  1  0.53697000  0.40605000  0.98157000  1.0
  F  F225  1  0.86070000  0.96715000  0.47151000  1.0
  F  F226  1  0.61962000  0.52466000  0.02671000  1.0
  F  F227  1  0.93532000  0.58697000  0.48383000  1.0
  F  F228  1  0.03817000  0.09449000  0.98073000  1.0
  F  F229  1  0.36075000  0.53286000  0.47150000  1.0
  F  F230  1  0.11986000  0.97607000  0.02672000  1.0
  F  F231  1  0.43533000  0.91305000  0.48380000  1.0
  F  F232  1  0.53909000  0.90545000  0.01913000  1.0
  F  F233  1  0.86074000  0.46722000  0.52847000  1.0
  F  F234  1  0.61988000  0.02440000  0.97339000  1.0
  F  F235  1  0.93532000  0.08695000  0.51615000  1.0
