# generated using pymatgen
data_Zr3H14(C3O2)8
_symmetry_space_group_name_H-M   'P 1'
_cell_length_a   14.75890000
_cell_length_b   14.75890000
_cell_length_c   14.75890000
_cell_angle_alpha   60.00000000
_cell_angle_beta   60.00000000
_cell_angle_gamma   60.00000000
_symmetry_Int_Tables_number   1
_chemical_formula_structural   Zr3H14(C3O2)8
_chemical_formula_sum   'Zr6 H28 C48 O32'
_cell_volume   2273.24881124
_cell_formula_units_Z   2
loop_
 _symmetry_equiv_pos_site_id
 _symmetry_equiv_pos_as_xyz
  1  'x, y, z'
loop_
 _atom_site_type_symbol
 _atom_site_label
 _atom_site_symmetry_multiplicity
 _atom_site_fract_x
 _atom_site_fract_y
 _atom_site_fract_z
 _atom_site_occupancy
  Zr  Zr0  1  0.12027000  0.88004000  0.11938000  1.0
  Zr  Zr1  1  0.88086000  0.11944000  0.87987000  1.0
  Zr  Zr2  1  0.12040000  0.87991000  0.87984000  1.0
  Zr  Zr3  1  0.88086000  0.11955000  0.11936000  1.0
  Zr  Zr4  1  0.12027000  0.11961000  0.87977000  1.0
  Zr  Zr5  1  0.88083000  0.87995000  0.11932000  1.0
  H  H6  1  0.40785000  0.57787000  0.15243000  1.0
  H  H7  1  0.57832000  0.40656000  0.86212000  1.0
  H  H8  1  0.86379000  0.15407000  0.57613000  1.0
  H  H9  1  0.15321000  0.86148000  0.40732000  1.0
  H  H10  1  0.40650000  0.86303000  0.57587000  1.0
  H  H11  1  0.57871000  0.15224000  0.40731000  1.0
  H  H12  1  0.86270000  0.40676000  0.15248000  1.0
  H  H13  1  0.15483000  0.57620000  0.86327000  1.0
  H  H14  1  0.40972000  0.15075000  0.85936000  1.0
  H  H15  1  0.57622000  0.86410000  0.15436000  1.0
  H  H16  1  0.86196000  0.57831000  0.40735000  1.0
  H  H17  1  0.15268000  0.40758000  0.57825000  1.0
  H  H18  1  0.40765000  0.57725000  0.86198000  1.0
  H  H19  1  0.57857000  0.40724000  0.15254000  1.0
  H  H20  1  0.86407000  0.15412000  0.40529000  1.0
  H  H21  1  0.15311000  0.86171000  0.57785000  1.0
  H  H22  1  0.40485000  0.86487000  0.15504000  1.0
  H  H23  1  0.58153000  0.14960000  0.85829000  1.0
  H  H24  1  0.86189000  0.40762000  0.57805000  1.0
  H  H25  1  0.15274000  0.57827000  0.40759000  1.0
  H  H26  1  0.40798000  0.15211000  0.57793000  1.0
  H  H27  1  0.57719000  0.86311000  0.40533000  1.0
  H  H28  1  0.86257000  0.57730000  0.15279000  1.0
  H  H29  1  0.15506000  0.40549000  0.86320000  1.0
  H  H30  1  0.28357000  0.90566000  0.90524000  1.0
  H  H31  1  0.90632000  0.28266000  0.90546000  1.0
  H  H32  1  0.90690000  0.90499000  0.90510000  1.0
  H  H33  1  0.90614000  0.90560000  0.28252000  1.0
  C  C34  1  0.44603000  0.53945000  0.08948000  1.0
  C  C35  1  0.54004000  0.44492000  0.92517000  1.0
  C  C36  1  0.92671000  0.09069000  0.53817000  1.0
  C  C37  1  0.09039000  0.92499000  0.44512000  1.0
  C  C38  1  0.44506000  0.92577000  0.53816000  1.0
  C  C39  1  0.54010000  0.08950000  0.44509000  1.0
  C  C40  1  0.92611000  0.44473000  0.08973000  1.0
  C  C41  1  0.09144000  0.53822000  0.92603000  1.0
  C  C42  1  0.44726000  0.08845000  0.92315000  1.0
  C  C43  1  0.53894000  0.92627000  0.09032000  1.0
  C  C44  1  0.92510000  0.53997000  0.44559000  1.0
  C  C45  1  0.08966000  0.44577000  0.53988000  1.0
  C  C46  1  0.44588000  0.53911000  0.92509000  1.0
  C  C47  1  0.54022000  0.44527000  0.08955000  1.0
  C  C48  1  0.92681000  0.09073000  0.44393000  1.0
  C  C49  1  0.09033000  0.92507000  0.53927000  1.0
  C  C50  1  0.44438000  0.92668000  0.09063000  1.0
  C  C51  1  0.54189000  0.08792000  0.92274000  1.0
  C  C52  1  0.92508000  0.44578000  0.53976000  1.0
  C  C53  1  0.08971000  0.53995000  0.44571000  1.0
  C  C54  1  0.44592000  0.08942000  0.53924000  1.0
  C  C55  1  0.53925000  0.92584000  0.44398000  1.0
  C  C56  1  0.92607000  0.53884000  0.08991000  1.0
  C  C57  1  0.09146000  0.44410000  0.92592000  1.0
  C  C58  1  0.30041000  0.69091000  0.00421000  1.0
  C  C59  1  0.39900000  0.58731000  0.00672000  1.0
  C  C60  1  0.69161000  0.29936000  0.00450000  1.0
  C  C61  1  0.58811000  0.39810000  0.00689000  1.0
  C  C62  1  0.00523000  0.00458000  0.69055000  1.0
  C  C63  1  0.00790000  0.00726000  0.58681000  1.0
  C  C64  1  0.00525000  0.00440000  0.29938000  1.0
  C  C65  1  0.00807000  0.00722000  0.39761000  1.0
  C  C66  1  0.30019000  0.00429000  0.69051000  1.0
  C  C67  1  0.39857000  0.00696000  0.58680000  1.0
  C  C68  1  0.69142000  0.00461000  0.29909000  1.0
  C  C69  1  0.58776000  0.00713000  0.39759000  1.0
  C  C70  1  0.00556000  0.29925000  0.00436000  1.0
  C  C71  1  0.00820000  0.39760000  0.00708000  1.0
  C  C72  1  0.00542000  0.69042000  0.00465000  1.0
  C  C73  1  0.00810000  0.58665000  0.00742000  1.0
  C  C74  1  0.29995000  0.00485000  0.00425000  1.0
  C  C75  1  0.39872000  0.00717000  0.00651000  1.0
  C  C76  1  0.69212000  0.00385000  0.00351000  1.0
  C  C77  1  0.58859000  0.00637000  0.00588000  1.0
  C  C78  1  0.00480000  0.69117000  0.29971000  1.0
  C  C79  1  0.00697000  0.58789000  0.39861000  1.0
  C  C80  1  0.00466000  0.29983000  0.69101000  1.0
  C  C81  1  0.00692000  0.39873000  0.58774000  1.0
  O  O82  1  0.26255000  0.73214000  0.07952000  1.0
  O  O83  1  0.73236000  0.26104000  0.92629000  1.0
  O  O84  1  0.92679000  0.08015000  0.73153000  1.0
  O  O85  1  0.08057000  0.92563000  0.26162000  1.0
  O  O86  1  0.26223000  0.92567000  0.73178000  1.0
  O  O87  1  0.73279000  0.07978000  0.26141000  1.0
  O  O88  1  0.92707000  0.26113000  0.07981000  1.0
  O  O89  1  0.08063000  0.73177000  0.92587000  1.0
  O  O90  1  0.26229000  0.07998000  0.92539000  1.0
  O  O91  1  0.73307000  0.92535000  0.07909000  1.0
  O  O92  1  0.92616000  0.73232000  0.26180000  1.0
  O  O93  1  0.08046000  0.26149000  0.73179000  1.0
  O  O94  1  0.26239000  0.73187000  0.92573000  1.0
  O  O95  1  0.73293000  0.26165000  0.07971000  1.0
  O  O96  1  0.92657000  0.07971000  0.26154000  1.0
  O  O97  1  0.08042000  0.92571000  0.73189000  1.0
  O  O98  1  0.26160000  0.92668000  0.08017000  1.0
  O  O99  1  0.73325000  0.07927000  0.92492000  1.0
  O  O100  1  0.92603000  0.26195000  0.73216000  1.0
  O  O101  1  0.08056000  0.73196000  0.26140000  1.0
  O  O102  1  0.26229000  0.07966000  0.73175000  1.0
  O  O103  1  0.73246000  0.92622000  0.26083000  1.0
  O  O104  1  0.92682000  0.73165000  0.08005000  1.0
  O  O105  1  0.08061000  0.26160000  0.92541000  1.0
  O  O106  1  0.05029000  0.04951000  0.04934000  1.0
  O  O107  1  0.93331000  0.93209000  0.93206000  1.0
  O  O108  1  0.05029000  0.04945000  0.85044000  1.0
  O  O109  1  0.93305000  0.93234000  0.20204000  1.0
  O  O110  1  0.85132000  0.04945000  0.04933000  1.0
  O  O111  1  0.20310000  0.93231000  0.93218000  1.0
  O  O112  1  0.05035000  0.85050000  0.04942000  1.0
  O  O113  1  0.93301000  0.20219000  0.93220000  1.0
