data_image0
_chemical_formula_structural       Zr6H28C48O32
_chemical_formula_sum              "Zr6 H28 C48 O32"
_cell_length_a       14.7589
_cell_length_b       14.7589
_cell_length_c       14.7589
_cell_angle_alpha    60
_cell_angle_beta     60
_cell_angle_gamma    60

_space_group_name_H-M_alt    "P 1"
_space_group_IT_number       1

loop_
  _space_group_symop_operation_xyz
  'x, y, z'

loop_
  _atom_site_type_symbol
  _atom_site_label
  _atom_site_symmetry_multiplicity
  _atom_site_fract_x
  _atom_site_fract_y
  _atom_site_fract_z
  _atom_site_occupancy
  Zr  Zr1       1.0  0.88062  0.11969  0.11996  1.0000
  Zr  Zr2       1.0  0.12013  0.88017  0.88056  1.0000
  Zr  Zr3       1.0  0.12016  0.88015  0.12009  1.0000
  Zr  Zr4       1.0  0.88064  0.11977  0.88045  1.0000
  Zr  Zr5       1.0  0.12023  0.11965  0.88039  1.0000
  Zr  Zr6       1.0  0.88068  0.88010  0.12005  1.0000
  H   H1        1.0  0.84757  0.13815  0.42213  1.0000
  H   H2        1.0  0.13788  0.84700  0.59344  1.0000
  H   H3        1.0  0.42387  0.59399  0.84593  1.0000
  H   H4        1.0  0.59268  0.42201  0.13852  1.0000
  H   H5        1.0  0.42413  0.84540  0.13697  1.0000
  H   H6        1.0  0.59269  0.13826  0.84776  1.0000
  H   H7        1.0  0.84752  0.42194  0.59324  1.0000
  H   H8        1.0  0.13673  0.59430  0.42380  1.0000
  H   H9        1.0  0.14064  0.41983  0.84925  1.0000
  H   H10       1.0  0.84564  0.59468  0.13590  1.0000
  H   H11       1.0  0.59265  0.84762  0.42169  1.0000
  H   H12       1.0  0.42175  0.13851  0.59242  1.0000
  H   H13       1.0  0.13802  0.84688  0.42275  1.0000
  H   H14       1.0  0.84746  0.13835  0.59276  1.0000
  H   H15       1.0  0.59471  0.42348  0.84588  1.0000
  H   H16       1.0  0.42215  0.59267  0.13829  1.0000
  H   H17       1.0  0.84496  0.42476  0.13513  1.0000
  H   H18       1.0  0.14171  0.58942  0.85040  1.0000
  H   H19       1.0  0.42195  0.84756  0.59238  1.0000
  H   H20       1.0  0.59241  0.13860  0.42173  1.0000
  H   H21       1.0  0.42207  0.13802  0.84789  1.0000
  H   H22       1.0  0.59467  0.84563  0.13689  1.0000
  H   H23       1.0  0.84721  0.59266  0.42270  1.0000
  H   H24       1.0  0.13680  0.42375  0.59451  1.0000
  H   H25       1.0  0.09476  0.09447  0.09434  1.0000
  H   H26       1.0  0.09454  0.09444  0.71734  1.0000
  H   H27       1.0  0.09490  0.71699  0.09501  1.0000
  H   H28       1.0  0.71748  0.09426  0.09440  1.0000
  C   C1        1.0  0.91052  0.07496  0.46055  1.0000
  C   C2        1.0  0.07483  0.91013  0.55508  1.0000
  C   C3        1.0  0.46183  0.55557  0.90931  1.0000
  C   C4        1.0  0.55488  0.46050  0.07501  1.0000
  C   C5        1.0  0.46184  0.90899  0.07423  1.0000
  C   C6        1.0  0.55491  0.07469  0.91050  1.0000
  C   C7        1.0  0.91027  0.46057  0.55527  1.0000
  C   C8        1.0  0.07397  0.55569  0.46178  1.0000
  C   C9        1.0  0.07685  0.45886  0.91155  1.0000
  C   C10       1.0  0.90968  0.55553  0.07373  1.0000
  C   C11       1.0  0.55441  0.91066  0.46003  1.0000
  C   C12       1.0  0.46012  0.07531  0.55423  1.0000
  C   C13       1.0  0.07491  0.91008  0.46089  1.0000
  C   C14       1.0  0.91045  0.07504  0.55473  1.0000
  C   C15       1.0  0.55607  0.46147  0.90927  1.0000
  C   C16       1.0  0.46073  0.55467  0.07493  1.0000
  C   C17       1.0  0.90937  0.46169  0.07332  1.0000
  C   C18       1.0  0.07726  0.55255  0.91208  1.0000
  C   C19       1.0  0.46024  0.91062  0.55422  1.0000
  C   C20       1.0  0.55429  0.07537  0.46005  1.0000
  C   C21       1.0  0.46076  0.07458  0.91058  1.0000
  C   C22       1.0  0.55602  0.90907  0.07416  1.0000
  C   C23       1.0  0.91009  0.55482  0.46116  1.0000
  C   C24       1.0  0.07408  0.46148  0.55590  1.0000
  C   C25       1.0  0.99579  0.99553  0.30909  1.0000
  C   C26       1.0  0.99328  0.99303  0.41269  1.0000
  C   C27       1.0  0.99550  0.99547  0.70064  1.0000
  C   C28       1.0  0.99311  0.99310  0.60190  1.0000
  C   C29       1.0  0.30945  0.70036  0.99542  1.0000
  C   C30       1.0  0.41319  0.60197  0.99274  1.0000
  C   C31       1.0  0.70062  0.30903  0.99560  1.0000
  C   C32       1.0  0.60239  0.41290  0.99278  1.0000
  C   C33       1.0  0.30949  0.99499  0.99571  1.0000
  C   C34       1.0  0.41320  0.99233  0.99304  1.0000
  C   C35       1.0  0.70091  0.99512  0.99539  1.0000
  C   C36       1.0  0.60241  0.99248  0.99287  1.0000
  C   C37       1.0  0.99564  0.30917  0.70075  1.0000
  C   C38       1.0  0.99292  0.41288  0.60240  1.0000
  C   C39       1.0  0.99535  0.70049  0.30958  1.0000
  C   C40       1.0  0.99258  0.60217  0.41335  1.0000
  C   C41       1.0  0.99575  0.30905  0.99515  1.0000
  C   C42       1.0  -0.00651  0.41240  -0.00717  1.0000
  C   C43       1.0  0.99649  0.69948  0.99615  1.0000
  C   C44       1.0  0.99412  0.60084  0.99363  1.0000
  C   C45       1.0  0.70029  0.99568  0.30883  1.0000
  C   C46       1.0  0.60139  0.99347  0.41211  1.0000
  C   C47       1.0  0.30899  0.99550  0.70017  1.0000
  C   C48       1.0  0.41226  0.99339  0.60127  1.0000
  O   O1        1.0  0.92048  0.07421  0.26786  1.0000
  O   O2        1.0  0.07371  0.91969  0.73896  1.0000
  O   O3        1.0  0.26847  0.73847  0.91985  1.0000
  O   O4        1.0  0.73838  0.26782  0.07437  1.0000
  O   O5        1.0  0.26822  0.91968  0.07433  1.0000
  O   O6        1.0  0.73859  0.07398  0.92022  1.0000
  O   O7        1.0  0.92019  0.26801  0.73887  1.0000
  O   O8        1.0  0.07413  0.73827  0.26823  1.0000
  O   O9        1.0  0.07461  0.26766  0.92002  1.0000
  O   O10       1.0  0.92091  0.73751  0.07465  1.0000
  O   O11       1.0  0.73820  0.92028  0.26768  1.0000
  O   O12       1.0  0.26821  0.07374  0.73851  1.0000
  O   O13       1.0  0.07427  0.91999  0.26813  1.0000
  O   O14       1.0  0.92029  0.07429  0.73835  1.0000
  O   O15       1.0  0.73846  0.26782  0.92029  1.0000
  O   O16       1.0  0.26811  0.73802  0.07429  1.0000
  O   O17       1.0  0.91983  0.26845  0.07332  1.0000
  O   O18       1.0  0.07508  0.73744  0.92073  1.0000
  O   O19       1.0  0.26784  0.92014  0.73805  1.0000
  O   O20       1.0  0.73860  0.07392  0.26804  1.0000
  O   O21       1.0  0.26825  0.07370  0.92034  1.0000
  O   O22       1.0  0.73917  0.91951  0.07378  1.0000
  O   O23       1.0  0.91995  0.73852  0.26835  1.0000
  O   O24       1.0  0.07459  0.26762  0.73840  1.0000
  O   O25       1.0  0.95066  0.14914  0.95049  1.0000
  O   O26       1.0  0.06794  0.79746  0.06791  1.0000
  O   O27       1.0  0.14956  0.95018  0.95055  1.0000
  O   O28       1.0  0.79796  0.06743  0.06766  1.0000
  O   O29       1.0  0.95067  0.95010  0.95055  1.0000
  O   O30       1.0  0.06782  0.06759  0.06769  1.0000
  O   O31       1.0  0.95058  0.95027  0.14950  1.0000
  O   O32       1.0  0.06780  0.06740  0.79781  1.0000
