data_image0
_chemical_formula_structural       Al24P24O96
_chemical_formula_sum              "Al24 P24 O96"
_cell_length_a       18.7247
_cell_length_b       18.7247
_cell_length_c       9.4862
_cell_angle_alpha    90
_cell_angle_beta     90
_cell_angle_gamma    90.0001

_space_group_name_H-M_alt    "P 1"
_space_group_IT_number       1

loop_
  _space_group_symop_operation_xyz
  'x, y, z'

loop_
  _atom_site_type_symbol
  _atom_site_label
  _atom_site_symmetry_multiplicity
  _atom_site_fract_x
  _atom_site_fract_y
  _atom_site_fract_z
  _atom_site_occupancy
  Al  Al1       1.0  0.95507  0.83477  0.84024  1.0000
  Al  Al2       1.0  0.16576  0.93612  0.91662  1.0000
  Al  Al3       1.0  0.06583  0.94694  0.33735  1.0000
  Al  Al4       1.0  0.54508  0.66527  0.83989  1.0000
  Al  Al5       1.0  0.33427  0.56385  0.91669  1.0000
  Al  Al6       1.0  0.43405  0.55299  0.33746  1.0000
  Al  Al7       1.0  0.66518  0.95501  0.84012  1.0000
  Al  Al8       1.0  0.56381  0.16567  0.91648  1.0000
  Al  Al9       1.0  0.55294  0.06572  0.33734  1.0000
  Al  Al10      1.0  0.83478  0.54492  0.84010  1.0000
  Al  Al11      1.0  0.93619  0.33432  0.91650  1.0000
  Al  Al12      1.0  0.94709  0.43432  0.33731  1.0000
  Al  Al13      1.0  0.04498  0.16528  0.15993  1.0000
  Al  Al14      1.0  0.83431  0.06384  0.08358  1.0000
  Al  Al15      1.0  0.93429  0.05297  0.66264  1.0000
  Al  Al16      1.0  0.45505  0.33472  0.15992  1.0000
  Al  Al17      1.0  0.66567  0.43615  0.08362  1.0000
  Al  Al18      1.0  0.56571  0.44701  0.66262  1.0000
  Al  Al19      1.0  0.33476  0.04486  0.15998  1.0000
  Al  Al20      1.0  0.43584  0.83431  0.08383  1.0000
  Al  Al21      1.0  0.44704  0.93429  0.66265  1.0000
  Al  Al22      1.0  0.16529  0.45519  0.16007  1.0000
  Al  Al23      1.0  0.06367  0.66554  0.08351  1.0000
  Al  Al24      1.0  0.05303  0.56570  0.66263  1.0000
  P   P1        1.0  0.06553  0.83448  0.09144  1.0000
  P   P2        1.0  0.83432  0.95131  0.84001  1.0000
  P   P3        1.0  0.05645  0.93368  0.66221  1.0000
  P   P4        1.0  0.43486  0.66519  0.09112  1.0000
  P   P5        1.0  0.66569  0.54866  0.84000  1.0000
  P   P6        1.0  0.44356  0.56634  0.66222  1.0000
  P   P7        1.0  0.66531  0.06534  0.09135  1.0000
  P   P8        1.0  0.54855  0.83433  0.84023  1.0000
  P   P9        1.0  0.56631  0.05640  0.66210  1.0000
  P   P10       1.0  0.83470  0.43466  0.09137  1.0000
  P   P11       1.0  0.95127  0.66568  0.83986  1.0000
  P   P12       1.0  0.93370  0.44359  0.66209  1.0000
  P   P13       1.0  0.93466  0.16531  0.90868  1.0000
  P   P14       1.0  0.16567  0.04871  0.16002  1.0000
  P   P15       1.0  0.94364  0.06626  0.33786  1.0000
  P   P16       1.0  0.56534  0.33468  0.90868  1.0000
  P   P17       1.0  0.33435  0.45122  0.16004  1.0000
  P   P18       1.0  0.55633  0.43378  0.33784  1.0000
  P   P19       1.0  0.33470  0.93462  0.90842  1.0000
  P   P20       1.0  0.45128  0.16564  0.16000  1.0000
  P   P21       1.0  0.43369  0.94351  0.33798  1.0000
  P   P22       1.0  0.16534  0.56554  0.90885  1.0000
  P   P23       1.0  0.04874  0.33439  0.15998  1.0000
  P   P24       1.0  0.06634  0.55647  0.33801  1.0000
  O   O1        1.0  0.99702  0.84563  0.00411  1.0000
  O   O2        1.0  0.05535  0.87068  0.23465  1.0000
  O   O3        1.0  0.13060  0.86521  0.01367  1.0000
  O   O4        1.0  0.07989  0.75515  0.11712  1.0000
  O   O5        1.0  0.87340  0.87943  0.83702  1.0000
  O   O6        1.0  0.84495  0.98470  0.98711  1.0000
  O   O7        1.0  0.75516  0.93785  0.80993  1.0000
  O   O8        1.0  0.86300  0.00156  0.72489  1.0000
  O   O9        1.0  0.12251  0.94211  0.75543  1.0000
  O   O10       1.0  0.01277  0.00297  0.67165  1.0000
  O   O11       1.0  0.01125  0.86919  0.70897  1.0000
  O   O12       1.0  0.08168  0.92068  0.51068  1.0000
  O   O13       1.0  0.50322  0.65370  0.00367  1.0000
  O   O14       1.0  0.44472  0.62910  0.23447  1.0000
  O   O15       1.0  0.36937  0.63492  0.01375  1.0000
  O   O16       1.0  0.42073  0.74448  0.11697  1.0000
  O   O17       1.0  0.62670  0.62057  0.83690  1.0000
  O   O18       1.0  0.65506  0.51529  0.98711  1.0000
  O   O19       1.0  0.74485  0.56212  0.80992  1.0000
  O   O20       1.0  0.63699  0.49842  0.72487  1.0000
  O   O21       1.0  0.37751  0.55793  0.75554  1.0000
  O   O22       1.0  0.48722  0.49704  0.67163  1.0000
  O   O23       1.0  0.48875  0.63084  0.70887  1.0000
  O   O24       1.0  0.41833  0.57942  0.51073  1.0000
  O   O25       1.0  0.65376  0.99697  0.00380  1.0000
  O   O26       1.0  0.62912  0.05522  0.23457  1.0000
  O   O27       1.0  0.63467  0.13070  0.01418  1.0000
  O   O28       1.0  0.74466  0.07909  0.11661  1.0000
  O   O29       1.0  0.62043  0.87340  0.83724  1.0000
  O   O30       1.0  0.51506  0.84467  0.98726  1.0000
  O   O31       1.0  0.56211  0.75521  0.80990  1.0000
  O   O32       1.0  0.49836  0.86302  0.72501  1.0000
  O   O33       1.0  0.55786  0.12249  0.75529  1.0000
  O   O34       1.0  0.49701  0.01275  0.67166  1.0000
  O   O35       1.0  0.63079  0.01121  0.70882  1.0000
  O   O36       1.0  0.57921  0.08165  0.51058  1.0000
  O   O37       1.0  0.84625  0.50303  0.00382  1.0000
  O   O38       1.0  0.87089  0.44479  0.23457  1.0000
  O   O39       1.0  0.86532  0.36931  0.01417  1.0000
  O   O40       1.0  0.75534  0.42093  0.11661  1.0000
  O   O41       1.0  0.87941  0.62662  0.83681  1.0000
  O   O42       1.0  0.98460  0.65513  0.98710  1.0000
  O   O43       1.0  0.93786  0.74483  0.80977  1.0000
  O   O44       1.0  0.00161  0.63701  0.72491  1.0000
  O   O45       1.0  0.94215  0.37751  0.75530  1.0000
  O   O46       1.0  0.00301  0.48726  0.67169  1.0000
  O   O47       1.0  0.86922  0.48878  0.70879  1.0000
  O   O48       1.0  0.92081  0.41837  0.51056  1.0000
  O   O49       1.0  0.00302  0.15376  0.99624  1.0000
  O   O50       1.0  0.94479  0.12914  0.76544  1.0000
  O   O51       1.0  0.86929  0.13466  0.98579  1.0000
  O   O52       1.0  0.92090  0.24467  0.88341  1.0000
  O   O53       1.0  0.12664  0.12060  0.16298  1.0000
  O   O54       1.0  0.15504  0.01528  0.01294  1.0000
  O   O55       1.0  0.24482  0.06220  0.19004  1.0000
  O   O56       1.0  0.13697  0.99848  0.27516  1.0000
  O   O57       1.0  0.87754  0.05780  0.24468  1.0000
  O   O58       1.0  0.98731  0.99695  0.32837  1.0000
  O   O59       1.0  0.98881  0.13075  0.29113  1.0000
  O   O60       1.0  0.91837  0.07919  0.48937  1.0000
  O   O61       1.0  0.49699  0.34625  0.99624  1.0000
  O   O62       1.0  0.55521  0.37086  0.76545  1.0000
  O   O63       1.0  0.63071  0.36534  0.98578  1.0000
  O   O64       1.0  0.57910  0.25533  0.88342  1.0000
  O   O65       1.0  0.37333  0.37931  0.16283  1.0000
  O   O66       1.0  0.34499  0.48472  0.01298  1.0000
  O   O67       1.0  0.25521  0.43770  0.18996  1.0000
  O   O68       1.0  0.36311  0.50131  0.27525  1.0000
  O   O69       1.0  0.62242  0.44224  0.24467  1.0000
  O   O70       1.0  0.51266  0.50308  0.32841  1.0000
  O   O71       1.0  0.51117  0.36929  0.29111  1.0000
  O   O72       1.0  0.58161  0.42085  0.48934  1.0000
  O   O73       1.0  0.34621  0.00291  0.99621  1.0000
  O   O74       1.0  0.37077  0.94496  0.76512  1.0000
  O   O75       1.0  0.36555  0.86918  0.98486  1.0000
  O   O76       1.0  0.25535  0.92083  0.88312  1.0000
  O   O77       1.0  0.37943  0.12657  0.16302  1.0000
  O   O78       1.0  0.48467  0.15505  0.01289  1.0000
  O   O79       1.0  0.43784  0.24479  0.19007  1.0000
  O   O80       1.0  0.50156  0.13699  0.27509  1.0000
  O   O81       1.0  0.44233  0.87742  0.24484  1.0000
  O   O82       1.0  0.50298  0.98720  0.32856  1.0000
  O   O83       1.0  0.36929  0.98878  0.29125  1.0000
  O   O84       1.0  0.42075  0.91821  0.48946  1.0000
  O   O85       1.0  0.15379  0.49721  0.99639  1.0000
  O   O86       1.0  0.12914  0.55535  0.76567  1.0000
  O   O87       1.0  0.13471  0.63101  0.98572  1.0000
  O   O88       1.0  0.24469  0.57939  0.88358  1.0000
  O   O89       1.0  0.12058  0.37347  0.16295  1.0000
  O   O90       1.0  0.01533  0.34497  0.01288  1.0000
  O   O91       1.0  0.06218  0.25523  0.19006  1.0000
  O   O92       1.0  0.99846  0.36305  0.27509  1.0000
  O   O93       1.0  0.05782  0.62258  0.24482  1.0000
  O   O94       1.0  0.99694  0.51294  0.32853  1.0000
  O   O95       1.0  0.13056  0.51102  0.29139  1.0000
  O   O96       1.0  0.07926  0.58184  0.48946  1.0000
