# generated using pymatgen
data_CuH10(C4N3)2
_symmetry_space_group_name_H-M   'P 1'
_cell_length_a   7.25900000
_cell_length_b   11.27536272
_cell_length_c   11.27536272
_cell_angle_alpha   110.75238677
_cell_angle_beta   102.27463566
_cell_angle_gamma   102.27463566
_symmetry_Int_Tables_number   1
_chemical_formula_structural   CuH10(C4N3)2
_chemical_formula_sum   'Cu2 H20 C16 N12'
_cell_volume   800.30196914
_cell_formula_units_Z   2
loop_
 _symmetry_equiv_pos_site_id
 _symmetry_equiv_pos_as_xyz
  1  'x, y, z'
loop_
 _atom_site_type_symbol
 _atom_site_label
 _atom_site_symmetry_multiplicity
 _atom_site_fract_x
 _atom_site_fract_y
 _atom_site_fract_z
 _atom_site_occupancy
  Cu  Cu0  1  0.00000000  0.00000000  0.00000000  1.0
  Cu  Cu1  1  0.50000000  0.00000000  0.00000000  1.0
  H  H2  1  0.86750000  0.68370000  0.88390000  1.0
  H  H3  1  0.32410000  0.68120000  0.86500000  1.0
  H  H4  1  0.44190000  0.37170000  0.92670000  1.0
  H  H5  1  0.36270000  0.44120000  0.75640000  1.0
  H  H6  1  0.58560000  0.43520000  0.78640000  1.0
  H  H7  1  0.63250000  0.11610000  0.31630000  1.0
  H  H8  1  0.17590000  0.13500000  0.31880000  1.0
  H  H9  1  0.05810000  0.07330000  0.62830000  1.0
  H  H10  1  0.13730000  0.24360000  0.55880000  1.0
  H  H11  1  0.91440000  0.21360000  0.56480000  1.0
  H  H12  1  0.13250000  0.31630000  0.11610000  1.0
  H  H13  1  0.67590000  0.31880000  0.13500000  1.0
  H  H14  1  0.55810000  0.62830000  0.07330000  1.0
  H  H15  1  0.63730000  0.55880000  0.24360000  1.0
  H  H16  1  0.41440000  0.56480000  0.21360000  1.0
  H  H17  1  0.36750000  0.88390000  0.68370000  1.0
  H  H18  1  0.82410000  0.86500000  0.68120000  1.0
  H  H19  1  0.94190000  0.92670000  0.37170000  1.0
  H  H20  1  0.86270000  0.75640000  0.44120000  1.0
  H  H21  1  0.08560000  0.78640000  0.43520000  1.0
  C  C22  1  0.75500000  0.71340000  0.89060000  1.0
  C  C23  1  0.46300000  0.71030000  0.87970000  1.0
  C  C24  1  0.48400000  0.46320000  0.94280000  1.0
  C  C25  1  0.49600000  0.48170000  0.82430000  1.0
  C  C26  1  0.74500000  0.10940000  0.28660000  1.0
  C  C27  1  0.03700000  0.12030000  0.28970000  1.0
  C  C28  1  0.01600000  0.05720000  0.53680000  1.0
  C  C29  1  0.00400000  0.17570000  0.51830000  1.0
  C  C30  1  0.24500000  0.28660000  0.10940000  1.0
  C  C31  1  0.53700000  0.28970000  0.12030000  1.0
  C  C32  1  0.51600000  0.53680000  0.05720000  1.0
  C  C33  1  0.50400000  0.51830000  0.17570000  1.0
  C  C34  1  0.25500000  0.89060000  0.71340000  1.0
  C  C35  1  0.96300000  0.87970000  0.71030000  1.0
  C  C36  1  0.98400000  0.94280000  0.46320000  1.0
  C  C37  1  0.99600000  0.82430000  0.48170000  1.0
  N  N38  1  0.76500000  0.83700000  0.93380000  1.0
  N  N39  1  0.57700000  0.83720000  0.92680000  1.0
  N  N40  1  0.57400000  0.62930000  0.85470000  1.0
  N  N41  1  0.73500000  0.06620000  0.16300000  1.0
  N  N42  1  0.92300000  0.07320000  0.16280000  1.0
  N  N43  1  0.92600000  0.14530000  0.37070000  1.0
  N  N44  1  0.23500000  0.16300000  0.06620000  1.0
  N  N45  1  0.42300000  0.16280000  0.07320000  1.0
  N  N46  1  0.42600000  0.37070000  0.14530000  1.0
  N  N47  1  0.26500000  0.93380000  0.83700000  1.0
  N  N48  1  0.07700000  0.92680000  0.83720000  1.0
  N  N49  1  0.07400000  0.85470000  0.62930000  1.0
