# generated using pymatgen
data_CuPH2CO3
_symmetry_space_group_name_H-M   'P 1'
_cell_length_a   4.36300000
_cell_length_b   6.68440000
_cell_length_c   8.13615541
_cell_angle_alpha   114.25407495
_cell_angle_beta   92.99020777
_cell_angle_gamma   90.00000000
_symmetry_Int_Tables_number   1
_chemical_formula_structural   CuPH2CO3
_chemical_formula_sum   'Cu2 P2 H4 C2 O6'
_cell_volume   215.98443241
_cell_formula_units_Z   2
loop_
 _symmetry_equiv_pos_site_id
 _symmetry_equiv_pos_as_xyz
  1  'x, y, z'
loop_
 _atom_site_type_symbol
 _atom_site_label
 _atom_site_symmetry_multiplicity
 _atom_site_fract_x
 _atom_site_fract_y
 _atom_site_fract_z
 _atom_site_occupancy
  Cu  Cu0  1  0.50000000  0.50000000  0.50000000  1.0
  Cu  Cu1  1  0.50000000  0.00000000  0.50000000  1.0
  P  P2  1  0.02830000  0.85070000  0.70140000  1.0
  P  P3  1  0.97170000  0.14930000  0.29860000  1.0
  H  H4  1  0.77200000  0.84300000  0.93140000  1.0
  H  H5  1  0.22800000  0.91160000  0.06860000  1.0
  H  H6  1  0.22800000  0.15700000  0.06860000  1.0
  H  H7  1  0.77200000  0.08840000  0.93140000  1.0
  C  C8  1  0.87950000  0.96130000  0.92260000  1.0
  C  C9  1  0.12050000  0.03870000  0.07740000  1.0
  O  O10  1  0.21480000  0.65150000  0.68240000  1.0
  O  O11  1  0.78520000  0.96910000  0.31760000  1.0
  O  O12  1  0.78520000  0.34850000  0.31760000  1.0
  O  O13  1  0.21480000  0.03090000  0.68240000  1.0
  O  O14  1  0.74330000  0.78260000  0.56520000  1.0
  O  O15  1  0.25670000  0.21740000  0.43480000  1.0
