# generated using pymatgen
data_ZnH18C24N3O5
_symmetry_space_group_name_H-M   'P 1'
_cell_length_a   16.44100000
_cell_length_b   17.30900000
_cell_length_c   18.12800000
_cell_angle_alpha   92.43900000
_cell_angle_beta   90.00000000
_cell_angle_gamma   90.00000000
_symmetry_Int_Tables_number   1
_chemical_formula_structural   ZnH18C24N3O5
_chemical_formula_sum   'Zn8 H144 C192 N24 O40'
_cell_volume   5154.14333347
_cell_formula_units_Z   8
loop_
 _symmetry_equiv_pos_site_id
 _symmetry_equiv_pos_as_xyz
  1  'x, y, z'
loop_
 _atom_site_type_symbol
 _atom_site_label
 _atom_site_symmetry_multiplicity
 _atom_site_fract_x
 _atom_site_fract_y
 _atom_site_fract_z
 _atom_site_occupancy
  Zn  Zn0  1  0.49907000  0.72403000  0.22756000  1.0
  Zn  Zn1  1  0.00625000  0.70831000  0.79086000  1.0
  Zn  Zn2  1  0.00093000  0.22403000  0.72756000  1.0
  Zn  Zn3  1  0.49375000  0.20831000  0.29086000  1.0
  Zn  Zn4  1  0.99907000  0.77597000  0.27244000  1.0
  Zn  Zn5  1  0.50625000  0.79169000  0.70914000  1.0
  Zn  Zn6  1  0.50093000  0.27597000  0.77244000  1.0
  Zn  Zn7  1  0.99375000  0.29169000  0.20914000  1.0
  H  H8  1  0.82750000  0.69360000  0.52470000  1.0
  H  H9  1  0.82120000  0.78350000  0.53860000  1.0
  H  H10  1  0.69890000  0.75570000  0.61070000  1.0
  H  H11  1  0.73120000  0.67040000  0.61000000  1.0
  H  H12  1  0.77150000  0.84770000  0.30420000  1.0
  H  H13  1  0.81900000  0.75520000  0.39610000  1.0
  H  H14  1  0.78270000  0.67130000  0.39140000  1.0
  H  H15  1  0.82360000  0.58650000  0.60250000  1.0
  H  H16  1  0.24870000  0.02180000  0.75420000  1.0
  H  H17  1  0.52190000  0.14500000  0.53890000  1.0
  H  H18  1  0.68680000  0.70170000  0.47880000  1.0
  H  H19  1  0.70370000  0.79060000  0.47420000  1.0
  H  H20  1  0.86310000  0.85870000  0.79450000  1.0
  H  H21  1  0.14740000  0.93720000  0.78490000  1.0
  H  H22  1  0.48430000  0.08450000  0.64500000  1.0
  H  H23  1  0.15680000  0.44100000  0.72040000  1.0
  H  H24  1  0.26400000  0.52410000  0.74410000  1.0
  H  H25  1  0.31740000  0.50110000  0.96270000  1.0
  H  H26  1  0.29620000  0.98690000  0.53650000  1.0
  H  H27  1  0.99830000  0.44150000  0.66200000  1.0
  H  H28  1  0.68360000  0.59500000  0.40090000  1.0
  H  H29  1  0.22590000  0.78410000  0.62900000  1.0
  H  H30  1  0.23620000  0.30230000  0.87560000  1.0
  H  H31  1  0.04560000  0.53640000  0.74460000  1.0
  H  H32  1  0.75060000  0.85020000  0.70530000  1.0
  H  H33  1  0.33100000  0.86730000  0.60070000  1.0
  H  H34  1  0.60900000  0.48250000  0.41480000  1.0
  H  H35  1  0.34750000  0.38220000  0.89700000  1.0
  H  H36  1  0.49450000  0.60400000  0.85310000  1.0
  H  H37  1  0.33470000  0.04840000  0.43120000  1.0
  H  H38  1  0.88670000  0.46700000  0.59030000  1.0
  H  H39  1  0.65400000  0.86060000  0.22120000  1.0
  H  H40  1  0.35960000  0.56440000  0.07100000  1.0
  H  H41  1  0.44520000  0.56020000  0.27500000  1.0
  H  H42  1  0.48830000  0.46540000  0.35000000  1.0
  H  H43  1  0.53460000  0.66900000  0.96020000  1.0
  H  H44  1  0.67250000  0.19360000  0.02470000  1.0
  H  H45  1  0.67880000  0.28350000  0.03860000  1.0
  H  H46  1  0.80110000  0.25570000  0.11070000  1.0
  H  H47  1  0.76880000  0.17040000  0.11000000  1.0
  H  H48  1  0.72850000  0.34770000  0.80420000  1.0
  H  H49  1  0.68100000  0.25520000  0.89610000  1.0
  H  H50  1  0.71730000  0.17130000  0.89140000  1.0
  H  H51  1  0.67640000  0.08650000  0.10250000  1.0
  H  H52  1  0.25130000  0.52180000  0.25420000  1.0
  H  H53  1  0.97810000  0.64500000  0.03890000  1.0
  H  H54  1  0.81320000  0.20170000  0.97880000  1.0
  H  H55  1  0.79630000  0.29060000  0.97420000  1.0
  H  H56  1  0.63690000  0.35870000  0.29450000  1.0
  H  H57  1  0.35260000  0.43720000  0.28490000  1.0
  H  H58  1  0.01570000  0.58450000  0.14500000  1.0
  H  H59  1  0.34320000  0.94100000  0.22040000  1.0
  H  H60  1  0.23600000  0.02410000  0.24410000  1.0
  H  H61  1  0.18260000  0.00110000  0.46270000  1.0
  H  H62  1  0.20380000  0.48690000  0.03650000  1.0
  H  H63  1  0.50170000  0.94150000  0.16200000  1.0
  H  H64  1  0.81640000  0.09500000  0.90090000  1.0
  H  H65  1  0.27410000  0.28410000  0.12900000  1.0
  H  H66  1  0.26380000  0.80230000  0.37560000  1.0
  H  H67  1  0.45440000  0.03640000  0.24460000  1.0
  H  H68  1  0.74940000  0.35020000  0.20530000  1.0
  H  H69  1  0.16900000  0.36730000  0.10070000  1.0
  H  H70  1  0.89100000  0.98250000  0.91480000  1.0
  H  H71  1  0.15250000  0.88220000  0.39700000  1.0
  H  H72  1  0.00550000  0.10400000  0.35310000  1.0
  H  H73  1  0.16530000  0.54840000  0.93120000  1.0
  H  H74  1  0.61330000  0.96700000  0.09030000  1.0
  H  H75  1  0.84600000  0.36060000  0.72120000  1.0
  H  H76  1  0.14040000  0.06440000  0.57100000  1.0
  H  H77  1  0.05480000  0.06020000  0.77500000  1.0
  H  H78  1  0.01170000  0.96540000  0.85000000  1.0
  H  H79  1  0.96540000  0.16900000  0.46020000  1.0
  H  H80  1  0.32750000  0.80640000  0.97530000  1.0
  H  H81  1  0.32120000  0.71650000  0.96140000  1.0
  H  H82  1  0.19890000  0.74430000  0.88930000  1.0
  H  H83  1  0.23120000  0.82960000  0.89000000  1.0
  H  H84  1  0.27150000  0.65230000  0.19580000  1.0
  H  H85  1  0.31900000  0.74480000  0.10390000  1.0
  H  H86  1  0.28270000  0.82870000  0.10860000  1.0
  H  H87  1  0.32360000  0.91350000  0.89750000  1.0
  H  H88  1  0.74870000  0.47820000  0.74580000  1.0
  H  H89  1  0.02190000  0.35500000  0.96110000  1.0
  H  H90  1  0.18680000  0.79830000  0.02120000  1.0
  H  H91  1  0.20370000  0.70940000  0.02580000  1.0
  H  H92  1  0.36310000  0.64130000  0.70550000  1.0
  H  H93  1  0.64740000  0.56280000  0.71510000  1.0
  H  H94  1  0.98430000  0.41550000  0.85500000  1.0
  H  H95  1  0.65680000  0.05900000  0.77960000  1.0
  H  H96  1  0.76400000  0.97590000  0.75590000  1.0
  H  H97  1  0.81740000  0.99890000  0.53730000  1.0
  H  H98  1  0.79620000  0.51310000  0.96350000  1.0
  H  H99  1  0.49830000  0.05850000  0.83800000  1.0
  H  H100  1  0.18360000  0.90500000  0.09910000  1.0
  H  H101  1  0.72590000  0.71590000  0.87100000  1.0
  H  H102  1  0.73620000  0.19770000  0.62440000  1.0
  H  H103  1  0.54560000  0.96360000  0.75540000  1.0
  H  H104  1  0.25060000  0.64980000  0.79470000  1.0
  H  H105  1  0.83100000  0.63270000  0.89930000  1.0
  H  H106  1  0.10900000  0.01750000  0.08520000  1.0
  H  H107  1  0.84750000  0.11780000  0.60300000  1.0
  H  H108  1  0.99450000  0.89600000  0.64690000  1.0
  H  H109  1  0.83470000  0.45160000  0.06880000  1.0
  H  H110  1  0.38670000  0.03300000  0.90970000  1.0
  H  H111  1  0.15400000  0.63940000  0.27880000  1.0
  H  H112  1  0.85960000  0.93560000  0.42900000  1.0
  H  H113  1  0.94520000  0.93980000  0.22500000  1.0
  H  H114  1  0.98830000  0.03460000  0.15000000  1.0
  H  H115  1  0.03460000  0.83100000  0.53980000  1.0
  H  H116  1  0.17250000  0.30640000  0.47530000  1.0
  H  H117  1  0.17880000  0.21650000  0.46140000  1.0
  H  H118  1  0.30110000  0.24430000  0.38930000  1.0
  H  H119  1  0.26880000  0.32960000  0.39000000  1.0
  H  H120  1  0.22850000  0.15230000  0.69580000  1.0
  H  H121  1  0.18100000  0.24480000  0.60390000  1.0
  H  H122  1  0.21730000  0.32870000  0.60860000  1.0
  H  H123  1  0.17640000  0.41350000  0.39750000  1.0
  H  H124  1  0.75130000  0.97820000  0.24580000  1.0
  H  H125  1  0.47810000  0.85500000  0.46110000  1.0
  H  H126  1  0.31320000  0.29830000  0.52120000  1.0
  H  H127  1  0.29630000  0.20940000  0.52580000  1.0
  H  H128  1  0.13690000  0.14130000  0.20550000  1.0
  H  H129  1  0.85260000  0.06280000  0.21510000  1.0
  H  H130  1  0.51570000  0.91550000  0.35500000  1.0
  H  H131  1  0.84320000  0.55900000  0.27960000  1.0
  H  H132  1  0.73600000  0.47590000  0.25590000  1.0
  H  H133  1  0.68260000  0.49890000  0.03730000  1.0
  H  H134  1  0.70380000  0.01310000  0.46350000  1.0
  H  H135  1  0.00170000  0.55850000  0.33800000  1.0
  H  H136  1  0.31640000  0.40500000  0.59910000  1.0
  H  H137  1  0.77410000  0.21590000  0.37100000  1.0
  H  H138  1  0.76380000  0.69770000  0.12440000  1.0
  H  H139  1  0.95440000  0.46360000  0.25540000  1.0
  H  H140  1  0.24940000  0.14980000  0.29470000  1.0
  H  H141  1  0.66900000  0.13270000  0.39930000  1.0
  H  H142  1  0.39100000  0.51750000  0.58520000  1.0
  H  H143  1  0.65250000  0.61780000  0.10300000  1.0
  H  H144  1  0.50550000  0.39600000  0.14690000  1.0
  H  H145  1  0.66530000  0.95160000  0.56880000  1.0
  H  H146  1  0.11330000  0.53300000  0.40970000  1.0
  H  H147  1  0.34600000  0.13940000  0.77880000  1.0
  H  H148  1  0.64040000  0.43560000  0.92900000  1.0
  H  H149  1  0.55480000  0.43980000  0.72500000  1.0
  H  H150  1  0.51170000  0.53460000  0.65000000  1.0
  H  H151  1  0.46540000  0.33100000  0.03980000  1.0
  C  C152  1  0.64490000  0.71570000  0.31244000  1.0
  C  C153  1  0.45300000  0.14390000  0.40560000  1.0
  C  C154  1  0.79000000  0.73590000  0.53510000  1.0
  C  C155  1  0.74770000  0.72410000  0.60801000  1.0
  C  C156  1  0.86550000  0.70780000  0.69926000  1.0
  C  C157  1  0.72760000  0.81400000  0.29920000  1.0
  C  C158  1  0.76890000  0.72570000  0.39779000  1.0
  C  C159  1  0.89920000  0.63080000  0.68102000  1.0
  C  C160  1  0.11250000  0.79580000  0.73430000  1.0
  C  C161  1  0.17590000  0.85130000  0.71050000  1.0
  C  C162  1  0.18500000  0.36310000  0.79520000  1.0
  C  C163  1  0.40270000  0.54490000  0.89800000  1.0
  C  C164  1  0.47360000  0.66740000  0.09730000  1.0
  C  C165  1  0.30000000  0.95120000  0.67580000  1.0
  C  C166  1  0.38590000  0.03060000  0.60120000  1.0
  C  C167  1  0.86890000  0.57580000  0.63100000  1.0
  C  C168  1  0.24480000  0.97350000  0.73000000  1.0
  C  C169  1  0.47600000  0.11340000  0.53830000  1.0
  C  C170  1  0.72910000  0.74000000  0.47241000  1.0
  C  C171  1  0.31520000  0.46110000  0.82340000  1.0
  C  C172  1  0.60500000  0.64300000  0.33119000  1.0
  C  C173  1  0.85320000  0.81770000  0.76090000  1.0
  C  C174  1  0.45070000  0.62410000  0.02730000  1.0
  C  C175  1  0.18390000  0.92310000  0.74750000  1.0
  C  C176  1  0.45370000  0.07730000  0.60210000  1.0
  C  C177  1  0.19460000  0.42950000  0.75650000  1.0
  C  C178  1  0.25870000  0.47920000  0.77020000  1.0
  C  C179  1  0.36180000  0.53430000  0.96220000  1.0
  C  C180  1  0.34150000  0.01910000  0.53740000  1.0
  C  C181  1  0.97260000  0.48940000  0.66610000  1.0
  C  C182  1  0.63450000  0.58750000  0.37610000  1.0
  C  C183  1  0.43140000  0.10340000  0.47390000  1.0
  C  C184  1  0.23110000  0.83140000  0.65490000  1.0
  C  C185  1  0.24230000  0.34650000  0.84860000  1.0
  C  C186  1  0.00090000  0.54680000  0.71520000  1.0
  C  C187  1  0.79100000  0.81350000  0.71140000  1.0
  C  C188  1  0.29380000  0.88110000  0.63750000  1.0
  C  C189  1  0.59040000  0.52030000  0.38400000  1.0
  C  C190  1  0.30840000  0.39450000  0.86230000  1.0
  C  C191  1  0.46720000  0.59600000  0.89710000  1.0
  C  C192  1  0.36490000  0.05600000  0.47430000  1.0
  C  C193  1  0.90650000  0.50460000  0.62390000  1.0
  C  C194  1  0.66240000  0.82070000  0.25310000  1.0
  C  C195  1  0.38670000  0.57310000  0.02710000  1.0
  C  C196  1  0.49320000  0.56750000  0.30160000  1.0
  C  C197  1  0.51880000  0.51030000  0.34580000  1.0
  C  C198  1  0.49090000  0.63490000  0.96120000  1.0
  C  C199  1  0.11620000  0.30870000  0.77710000  1.0
  C  C200  1  0.85510000  0.21570000  0.81244000  1.0
  C  C201  1  0.04700000  0.64390000  0.90560000  1.0
  C  C202  1  0.71000000  0.23590000  0.03510000  1.0
  C  C203  1  0.75230000  0.22410000  0.10801000  1.0
  C  C204  1  0.63450000  0.20780000  0.19926000  1.0
  C  C205  1  0.77240000  0.31400000  0.79920000  1.0
  C  C206  1  0.73110000  0.22570000  0.89779000  1.0
  C  C207  1  0.60080000  0.13080000  0.18102000  1.0
  C  C208  1  0.38750000  0.29580000  0.23430000  1.0
  C  C209  1  0.32410000  0.35130000  0.21050000  1.0
  C  C210  1  0.31500000  0.86310000  0.29520000  1.0
  C  C211  1  0.09730000  0.04490000  0.39800000  1.0
  C  C212  1  0.02640000  0.16740000  0.59730000  1.0
  C  C213  1  0.20000000  0.45120000  0.17580000  1.0
  C  C214  1  0.11410000  0.53060000  0.10120000  1.0
  C  C215  1  0.63110000  0.07580000  0.13100000  1.0
  C  C216  1  0.25520000  0.47350000  0.23000000  1.0
  C  C217  1  0.02400000  0.61340000  0.03830000  1.0
  C  C218  1  0.77090000  0.24000000  0.97241000  1.0
  C  C219  1  0.18480000  0.96110000  0.32340000  1.0
  C  C220  1  0.89500000  0.14300000  0.83119000  1.0
  C  C221  1  0.64680000  0.31770000  0.26090000  1.0
  C  C222  1  0.04930000  0.12410000  0.52730000  1.0
  C  C223  1  0.31610000  0.42310000  0.24750000  1.0
  C  C224  1  0.04630000  0.57730000  0.10210000  1.0
  C  C225  1  0.30540000  0.92950000  0.25650000  1.0
  C  C226  1  0.24130000  0.97920000  0.27020000  1.0
  C  C227  1  0.13820000  0.03430000  0.46220000  1.0
  C  C228  1  0.15850000  0.51910000  0.03740000  1.0
  C  C229  1  0.52740000  0.98940000  0.16610000  1.0
  C  C230  1  0.86550000  0.08750000  0.87610000  1.0
  C  C231  1  0.06860000  0.60340000  0.97390000  1.0
  C  C232  1  0.26890000  0.33140000  0.15490000  1.0
  C  C233  1  0.25770000  0.84650000  0.34860000  1.0
  C  C234  1  0.49910000  0.04680000  0.21520000  1.0
  C  C235  1  0.70900000  0.31350000  0.21140000  1.0
  C  C236  1  0.20620000  0.38110000  0.13750000  1.0
  C  C237  1  0.90960000  0.02030000  0.88400000  1.0
  C  C238  1  0.19160000  0.89450000  0.36230000  1.0
  C  C239  1  0.03280000  0.09600000  0.39710000  1.0
  C  C240  1  0.13510000  0.55600000  0.97430000  1.0
  C  C241  1  0.59350000  0.00460000  0.12390000  1.0
  C  C242  1  0.83760000  0.32070000  0.75310000  1.0
  C  C243  1  0.11330000  0.07310000  0.52710000  1.0
  C  C244  1  0.00680000  0.06750000  0.80160000  1.0
  C  C245  1  0.98120000  0.01030000  0.84580000  1.0
  C  C246  1  0.00910000  0.13490000  0.46120000  1.0
  C  C247  1  0.38380000  0.80870000  0.27710000  1.0
  C  C248  1  0.14490000  0.78430000  0.18756000  1.0
  C  C249  1  0.95300000  0.35610000  0.09440000  1.0
  C  C250  1  0.29000000  0.76410000  0.96490000  1.0
  C  C251  1  0.24770000  0.77590000  0.89199000  1.0
  C  C252  1  0.36550000  0.79220000  0.80074000  1.0
  C  C253  1  0.22760000  0.68600000  0.20080000  1.0
  C  C254  1  0.26890000  0.77430000  0.10221000  1.0
  C  C255  1  0.39920000  0.86920000  0.81898000  1.0
  C  C256  1  0.61250000  0.70420000  0.76570000  1.0
  C  C257  1  0.67590000  0.64870000  0.78950000  1.0
  C  C258  1  0.68500000  0.13690000  0.70480000  1.0
  C  C259  1  0.90270000  0.95510000  0.60200000  1.0
  C  C260  1  0.97360000  0.83260000  0.40270000  1.0
  C  C261  1  0.80000000  0.54880000  0.82420000  1.0
  C  C262  1  0.88590000  0.46940000  0.89880000  1.0
  C  C263  1  0.36890000  0.92420000  0.86900000  1.0
  C  C264  1  0.74480000  0.52650000  0.77000000  1.0
  C  C265  1  0.97600000  0.38660000  0.96170000  1.0
  C  C266  1  0.22910000  0.76000000  0.02759000  1.0
  C  C267  1  0.81520000  0.03890000  0.67660000  1.0
  C  C268  1  0.10500000  0.85700000  0.16881000  1.0
  C  C269  1  0.35320000  0.68230000  0.73910000  1.0
  C  C270  1  0.95070000  0.87590000  0.47270000  1.0
  C  C271  1  0.68390000  0.57690000  0.75250000  1.0
  C  C272  1  0.95370000  0.42270000  0.89790000  1.0
  C  C273  1  0.69460000  0.07050000  0.74350000  1.0
  C  C274  1  0.75870000  0.02080000  0.72980000  1.0
  C  C275  1  0.86180000  0.96570000  0.53780000  1.0
  C  C276  1  0.84150000  0.48090000  0.96260000  1.0
  C  C277  1  0.47260000  0.01060000  0.83390000  1.0
  C  C278  1  0.13450000  0.91250000  0.12390000  1.0
  C  C279  1  0.93140000  0.39660000  0.02610000  1.0
  C  C280  1  0.73110000  0.66860000  0.84510000  1.0
  C  C281  1  0.74230000  0.15350000  0.65140000  1.0
  C  C282  1  0.50090000  0.95320000  0.78480000  1.0
  C  C283  1  0.29100000  0.68650000  0.78860000  1.0
  C  C284  1  0.79380000  0.61890000  0.86250000  1.0
  C  C285  1  0.09040000  0.97970000  0.11600000  1.0
  C  C286  1  0.80840000  0.10550000  0.63770000  1.0
  C  C287  1  0.96720000  0.90400000  0.60290000  1.0
  C  C288  1  0.86490000  0.44400000  0.02570000  1.0
  C  C289  1  0.40650000  0.99540000  0.87610000  1.0
  C  C290  1  0.16240000  0.67930000  0.24690000  1.0
  C  C291  1  0.88670000  0.92690000  0.47290000  1.0
  C  C292  1  0.99320000  0.93250000  0.19840000  1.0
  C  C293  1  0.01880000  0.98970000  0.15420000  1.0
  C  C294  1  0.99090000  0.86510000  0.53880000  1.0
  C  C295  1  0.61620000  0.19130000  0.72290000  1.0
  C  C296  1  0.35510000  0.28430000  0.68756000  1.0
  C  C297  1  0.54700000  0.85610000  0.59440000  1.0
  C  C298  1  0.21000000  0.26410000  0.46490000  1.0
  C  C299  1  0.25230000  0.27590000  0.39199000  1.0
  C  C300  1  0.13450000  0.29220000  0.30074000  1.0
  C  C301  1  0.27240000  0.18600000  0.70080000  1.0
  C  C302  1  0.23110000  0.27430000  0.60221000  1.0
  C  C303  1  0.10080000  0.36920000  0.31898000  1.0
  C  C304  1  0.88750000  0.20420000  0.26570000  1.0
  C  C305  1  0.82410000  0.14870000  0.28950000  1.0
  C  C306  1  0.81500000  0.63690000  0.20480000  1.0
  C  C307  1  0.59730000  0.45510000  0.10200000  1.0
  C  C308  1  0.52640000  0.33260000  0.90270000  1.0
  C  C309  1  0.70000000  0.04880000  0.32420000  1.0
  C  C310  1  0.61410000  0.96940000  0.39880000  1.0
  C  C311  1  0.13110000  0.42420000  0.36900000  1.0
  C  C312  1  0.75520000  0.02650000  0.27000000  1.0
  C  C313  1  0.52400000  0.88660000  0.46170000  1.0
  C  C314  1  0.27090000  0.26000000  0.52759000  1.0
  C  C315  1  0.68480000  0.53890000  0.17660000  1.0
  C  C316  1  0.39500000  0.35700000  0.66881000  1.0
  C  C317  1  0.14680000  0.18230000  0.23910000  1.0
  C  C318  1  0.54930000  0.37590000  0.97270000  1.0
  C  C319  1  0.81610000  0.07690000  0.25250000  1.0
  C  C320  1  0.54630000  0.92270000  0.39790000  1.0
  C  C321  1  0.80540000  0.57050000  0.24350000  1.0
  C  C322  1  0.74130000  0.52080000  0.22980000  1.0
  C  C323  1  0.63820000  0.46570000  0.03780000  1.0
  C  C324  1  0.65850000  0.98090000  0.46260000  1.0
  C  C325  1  0.02740000  0.51060000  0.33390000  1.0
  C  C326  1  0.36550000  0.41250000  0.62390000  1.0
  C  C327  1  0.56860000  0.89660000  0.52610000  1.0
  C  C328  1  0.76890000  0.16860000  0.34510000  1.0
  C  C329  1  0.75770000  0.65350000  0.15140000  1.0
  C  C330  1  0.99910000  0.45320000  0.28480000  1.0
  C  C331  1  0.20900000  0.18650000  0.28860000  1.0
  C  C332  1  0.70620000  0.11890000  0.36250000  1.0
  C  C333  1  0.40960000  0.47970000  0.61600000  1.0
  C  C334  1  0.69160000  0.60550000  0.13770000  1.0
  C  C335  1  0.53280000  0.40400000  0.10290000  1.0
  C  C336  1  0.63510000  0.94400000  0.52570000  1.0
  C  C337  1  0.09350000  0.49540000  0.37610000  1.0
  C  C338  1  0.33760000  0.17930000  0.74690000  1.0
  C  C339  1  0.61330000  0.42690000  0.97290000  1.0
  C  C340  1  0.50680000  0.43250000  0.69840000  1.0
  C  C341  1  0.48120000  0.48970000  0.65420000  1.0
  C  C342  1  0.50910000  0.36510000  0.03880000  1.0
  C  C343  1  0.88380000  0.69130000  0.22290000  1.0
  N  N344  1  0.79982000  0.74419000  0.67217000  1.0
  N  N345  1  0.71538000  0.74767000  0.33674000  1.0
  N  N346  1  0.96636000  0.61595000  0.72173000  1.0
  N  N347  1  0.53370000  0.63285000  0.29487000  1.0
  N  N348  1  0.61170000  0.75924000  0.26147000  1.0
  N  N349  1  0.89869000  0.75176000  0.75318000  1.0
  N  N350  1  0.70018000  0.24419000  0.17217000  1.0
  N  N351  1  0.78462000  0.24767000  0.83674000  1.0
  N  N352  1  0.53364000  0.11595000  0.22173000  1.0
  N  N353  1  0.96630000  0.13285000  0.79487000  1.0
  N  N354  1  0.88830000  0.25924000  0.76147000  1.0
  N  N355  1  0.60131000  0.25176000  0.25318000  1.0
  N  N356  1  0.29982000  0.75581000  0.82783000  1.0
  N  N357  1  0.21538000  0.75233000  0.16326000  1.0
  N  N358  1  0.46636000  0.88405000  0.77827000  1.0
  N  N359  1  0.03370000  0.86715000  0.20513000  1.0
  N  N360  1  0.11170000  0.74076000  0.23853000  1.0
  N  N361  1  0.39869000  0.74824000  0.74682000  1.0
  N  N362  1  0.20018000  0.25581000  0.32783000  1.0
  N  N363  1  0.28462000  0.25233000  0.66326000  1.0
  N  N364  1  0.03364000  0.38405000  0.27827000  1.0
  N  N365  1  0.46630000  0.36715000  0.70513000  1.0
  N  N366  1  0.38830000  0.24076000  0.73853000  1.0
  N  N367  1  0.10131000  0.24824000  0.24682000  1.0
  O  O368  1  0.51630000  0.18637000  0.40457000  1.0
  O  O369  1  0.36644000  0.00044000  0.66821000  1.0
  O  O370  1  0.40861000  0.13614000  0.34937000  1.0
  O  O371  1  0.07397000  0.81035000  0.79354000  1.0
  O  O372  1  0.38245000  0.50975000  0.83038000  1.0
  O  O373  1  0.09910000  0.73530000  0.69737000  1.0
  O  O374  1  0.52720000  0.71810000  0.09891000  1.0
  O  O375  1  0.43500000  0.65171000  0.15544000  1.0
  O  O376  1  0.06827000  0.32400000  0.72590000  1.0
  O  O377  1  0.10700000  0.24900000  0.81210000  1.0
  O  O378  1  0.98370000  0.68637000  0.90457000  1.0
  O  O379  1  0.13356000  0.50044000  0.16821000  1.0
  O  O380  1  0.09139000  0.63614000  0.84937000  1.0
  O  O381  1  0.42603000  0.31035000  0.29354000  1.0
  O  O382  1  0.11755000  0.00975000  0.33038000  1.0
  O  O383  1  0.40090000  0.23530000  0.19737000  1.0
  O  O384  1  0.97280000  0.21810000  0.59891000  1.0
  O  O385  1  0.06500000  0.15171000  0.65544000  1.0
  O  O386  1  0.43173000  0.82400000  0.22590000  1.0
  O  O387  1  0.39300000  0.74900000  0.31210000  1.0
  O  O388  1  0.01630000  0.31363000  0.09543000  1.0
  O  O389  1  0.86644000  0.49956000  0.83179000  1.0
  O  O390  1  0.90861000  0.36386000  0.15063000  1.0
  O  O391  1  0.57397000  0.68965000  0.70646000  1.0
  O  O392  1  0.88245000  0.99025000  0.66962000  1.0
  O  O393  1  0.59910000  0.76470000  0.80263000  1.0
  O  O394  1  0.02720000  0.78190000  0.40109000  1.0
  O  O395  1  0.93500000  0.84829000  0.34456000  1.0
  O  O396  1  0.56827000  0.17600000  0.77410000  1.0
  O  O397  1  0.60700000  0.25100000  0.68790000  1.0
  O  O398  1  0.48370000  0.81363000  0.59543000  1.0
  O  O399  1  0.63356000  0.99956000  0.33179000  1.0
  O  O400  1  0.59139000  0.86386000  0.65063000  1.0
  O  O401  1  0.92603000  0.18965000  0.20646000  1.0
  O  O402  1  0.61755000  0.49025000  0.16962000  1.0
  O  O403  1  0.90090000  0.26470000  0.30263000  1.0
  O  O404  1  0.47280000  0.28190000  0.90109000  1.0
  O  O405  1  0.56500000  0.34829000  0.84456000  1.0
  O  O406  1  0.93173000  0.67600000  0.27410000  1.0
  O  O407  1  0.89300000  0.75100000  0.18790000  1.0
