# generated using pymatgen
data_MgHC5(NO2)2
_symmetry_space_group_name_H-M   'P 1'
_cell_length_a   9.11400000
_cell_length_b   16.09939738
_cell_length_c   16.09939738
_cell_angle_alpha   116.52491473
_cell_angle_beta   100.87708582
_cell_angle_gamma   100.87708582
_symmetry_Int_Tables_number   1
_chemical_formula_structural   MgHC5(NO2)2
_chemical_formula_sum   'Mg6 H6 C30 N12 O24'
_cell_volume   1972.93225717
_cell_formula_units_Z   6
loop_
 _symmetry_equiv_pos_site_id
 _symmetry_equiv_pos_as_xyz
  1  'x, y, z'
loop_
 _atom_site_type_symbol
 _atom_site_label
 _atom_site_symmetry_multiplicity
 _atom_site_fract_x
 _atom_site_fract_y
 _atom_site_fract_z
 _atom_site_occupancy
  Mg  Mg0  1  0.19586000  0.09839000  0.23299000  1.0
  Mg  Mg1  1  0.96287000  0.76701000  0.86540000  1.0
  Mg  Mg2  1  0.09747000  0.13460000  0.90161000  1.0
  Mg  Mg3  1  0.80414000  0.90161000  0.76701000  1.0
  Mg  Mg4  1  0.03713000  0.23299000  0.13460000  1.0
  Mg  Mg5  1  0.90253000  0.86540000  0.09839000  1.0
  H  H6  1  0.37050000  0.14570000  0.05110000  1.0
  H  H7  1  0.31940000  0.94890000  0.09460000  1.0
  H  H8  1  0.22480000  0.90540000  0.85430000  1.0
  H  H9  1  0.62950000  0.85430000  0.94890000  1.0
  H  H10  1  0.68060000  0.05110000  0.90540000  1.0
  H  H11  1  0.77520000  0.09460000  0.14570000  1.0
  C  C12  1  0.28826000  0.31773000  0.33405000  1.0
  C  C13  1  0.39488000  0.41194000  0.41930000  1.0
  C  C14  1  0.47967000  0.41408000  0.50173000  1.0
  C  C15  1  0.41599000  0.49968000  0.41709000  1.0
  C  C16  1  0.29386000  0.14946000  0.08232000  1.0
  C  C17  1  0.95421000  0.66595000  0.98368000  1.0
  C  C18  1  0.97558000  0.58070000  0.99264000  1.0
  C  C19  1  0.97794000  0.49827000  0.91235000  1.0
  C  C20  1  0.99890000  0.58291000  0.08259000  1.0
  C  C21  1  0.21154000  0.91768000  0.06714000  1.0
  C  C22  1  0.97053000  0.01632000  0.68227000  1.0
  C  C23  1  0.98294000  0.00736000  0.58806000  1.0
  C  C24  1  0.06559000  0.08765000  0.58592000  1.0
  C  C25  1  0.91631000  0.91741000  0.50032000  1.0
  C  C26  1  0.14440000  0.93286000  0.85054000  1.0
  C  C27  1  0.71174000  0.68227000  0.66595000  1.0
  C  C28  1  0.60512000  0.58806000  0.58070000  1.0
  C  C29  1  0.52033000  0.58592000  0.49827000  1.0
  C  C30  1  0.58401000  0.50032000  0.58291000  1.0
  C  C31  1  0.70614000  0.85054000  0.91768000  1.0
  C  C32  1  0.04579000  0.33405000  0.01632000  1.0
  C  C33  1  0.02442000  0.41930000  0.00736000  1.0
  C  C34  1  0.02206000  0.50173000  0.08765000  1.0
  C  C35  1  0.00110000  0.41709000  0.91741000  1.0
  C  C36  1  0.78846000  0.08232000  0.93286000  1.0
  C  C37  1  0.02947000  0.98368000  0.31773000  1.0
  C  C38  1  0.01706000  0.99264000  0.41194000  1.0
  C  C39  1  0.93441000  0.91235000  0.41408000  1.0
  C  C40  1  0.08369000  0.08259000  0.49968000  1.0
  C  C41  1  0.85560000  0.06714000  0.14946000  1.0
  N  N42  1  0.33460000  0.50950000  0.33950000  1.0
  N  N43  1  0.47900000  0.33680000  0.50920000  1.0
  N  N44  1  0.99510000  0.66050000  0.17000000  1.0
  N  N45  1  0.96980000  0.49080000  0.82760000  1.0
  N  N46  1  0.82510000  0.83000000  0.49050000  1.0
  N  N47  1  0.14220000  0.17240000  0.66320000  1.0
  N  N48  1  0.66540000  0.49050000  0.66050000  1.0
  N  N49  1  0.52100000  0.66320000  0.49080000  1.0
  N  N50  1  0.00490000  0.33950000  0.83000000  1.0
  N  N51  1  0.03020000  0.50920000  0.17240000  1.0
  N  N52  1  0.17490000  0.17000000  0.50950000  1.0
  N  N53  1  0.85780000  0.82760000  0.33680000  1.0
  O  O54  1  0.27347000  0.24213000  0.34128000  1.0
  O  O55  1  0.22095000  0.31950000  0.25905000  1.0
  O  O56  1  0.31799000  0.13556000  0.15241000  1.0
  O  O57  1  0.17626000  0.16806000  0.04902000  1.0
  O  O58  1  0.93219000  0.65872000  0.90085000  1.0
  O  O59  1  0.96190000  0.74095000  0.06045000  1.0
  O  O60  1  0.16558000  0.84759000  0.98315000  1.0
  O  O61  1  0.12724000  0.95098000  0.11904000  1.0
  O  O62  1  0.03134000  0.09915000  0.75787000  1.0
  O  O63  1  0.90145000  0.93955000  0.68050000  1.0
  O  O64  1  0.18243000  0.01685000  0.86444000  1.0
  O  O65  1  0.00820000  0.88096000  0.83194000  1.0
  O  O66  1  0.72653000  0.75787000  0.65872000  1.0
  O  O67  1  0.77905000  0.68050000  0.74095000  1.0
  O  O68  1  0.68201000  0.86444000  0.84759000  1.0
  O  O69  1  0.82374000  0.83194000  0.95098000  1.0
  O  O70  1  0.06781000  0.34128000  0.09915000  1.0
  O  O71  1  0.03810000  0.25905000  0.93955000  1.0
  O  O72  1  0.83442000  0.15241000  0.01685000  1.0
  O  O73  1  0.87276000  0.04902000  0.88096000  1.0
  O  O74  1  0.96866000  0.90085000  0.24213000  1.0
  O  O75  1  0.09855000  0.06045000  0.31950000  1.0
  O  O76  1  0.81757000  0.98315000  0.13556000  1.0
  O  O77  1  0.99180000  0.11904000  0.16806000  1.0
